<?xml version="1.0" encoding="UTF-8"?>

<!-- generated on 2024-10-24 11:21:25 by Eclipse SUMO netconvert Version 1.20.0
<configuration xmlns:xsi="http://www.w3.org/2001/XMLSchema-instance" xsi:noNamespaceSchemaLocation="http://sumo.dlr.de/xsd/netconvertConfiguration.xsd">

    <input>
        <osm-files value="C:\Users\asus\Desktop\AIP\Project Code\urban-mobility-simulation\backend\controllers\2024-10-24T15-21-25-459Z\map.osm"/>
    </input>

    <output>
        <output-file value="map.net.xml"/>
    </output>

    <projection>
        <proj.utm value="true"/>
    </projection>

</configuration>
-->

<net version="1.20" junctionCornerDetail="5" limitTurnSpeed="5.50" xmlns:xsi="http://www.w3.org/2001/XMLSchema-instance" xsi:noNamespaceSchemaLocation="http://sumo.dlr.de/xsd/net_file.xsd">

    <location netOffset="-178091.60,-549706.06" convBoundary="0.00,0.00,2947.67,2703.21" origBoundary="6.097485,4.966849,6.124030,4.991310" projParameter="+proj=utm +zone=32 +ellps=WGS84 +datum=WGS84 +units=m +no_defs"/>

    <type id="highway.residential" priority="3" numLanes="1" speed="13.89" disallow="tram rail_urban rail rail_electric rail_fast ship container cable_car subway aircraft wheelchair scooter drone" oneway="0"/>
    <type id="highway.service" priority="1" numLanes="1" speed="5.56" allow="pedestrian delivery bicycle" oneway="0"/>
    <type id="highway.tertiary" priority="10" numLanes="1" speed="22.22" disallow="tram rail_urban rail rail_electric rail_fast ship container cable_car subway aircraft wheelchair scooter drone" oneway="0"/>
    <type id="highway.unclassified" priority="4" numLanes="1" speed="13.89" disallow="tram rail_urban rail rail_electric rail_fast ship container cable_car subway aircraft wheelchair scooter drone" oneway="0"/>

    <edge id=":11397127864_0" function="internal">
        <lane id=":11397127864_0_0" index="0" disallow="tram rail_urban rail rail_electric rail_fast ship container cable_car subway aircraft wheelchair scooter drone" speed="3.65" length="4.67" shape="1948.12,898.42 1947.78,899.82 1947.16,900.47 1946.27,900.37 1945.11,899.51"/>
    </edge>
    <edge id=":11402354644_0" function="internal">
        <lane id=":11402354644_0_0" index="0" allow="pedestrian delivery bicycle" speed="3.65" length="4.67" shape="2730.45,447.66 2731.68,448.43 2732.10,449.22 2731.72,450.03 2730.55,450.86"/>
    </edge>
    <edge id=":3776399159_0" function="internal">
        <lane id=":3776399159_0_0" index="0" disallow="tram rail_urban rail rail_electric rail_fast ship container cable_car subway aircraft wheelchair scooter drone" speed="3.65" length="4.67" shape="1985.64,2136.69 1987.08,2136.59 1987.88,2136.98 1988.05,2137.86 1987.59,2139.23"/>
    </edge>
    <edge id=":3776399282_0" function="internal">
        <lane id=":3776399282_0_0" index="0" disallow="tram rail_urban rail rail_electric rail_fast ship container cable_car subway aircraft wheelchair scooter drone" speed="3.65" length="4.67" shape="971.64,856.98 972.40,858.20 972.43,859.09 971.74,859.66 970.31,859.89"/>
    </edge>
    <edge id=":3776399283_0" function="internal">
        <lane id=":3776399283_0_0" index="0" disallow="tram rail_urban rail rail_electric rail_fast ship container cable_car subway aircraft wheelchair scooter drone" speed="6.79" length="8.99" shape="799.99,782.65 797.62,781.93 795.53,782.06 793.73,783.04 792.22,784.87"/>
    </edge>
    <edge id=":3776399283_1" function="internal">
        <lane id=":3776399283_1_0" index="0" disallow="tram rail_urban rail rail_electric rail_fast ship container cable_car subway aircraft wheelchair scooter drone" speed="8.01" length="13.82" shape="799.99,782.65 796.81,780.62 795.00,778.05 794.56,774.94 795.49,771.29"/>
    </edge>
    <edge id=":3776399283_2" function="internal">
        <lane id=":3776399283_2_0" index="0" disallow="tram rail_urban rail rail_electric rail_fast ship container cable_car subway aircraft wheelchair scooter drone" speed="3.65" length="1.44" shape="799.99,782.65 799.23,781.42"/>
    </edge>
    <edge id=":3776399283_9" function="internal">
        <lane id=":3776399283_9_0" index="0" disallow="tram rail_urban rail rail_electric rail_fast ship container cable_car subway aircraft wheelchair scooter drone" speed="3.65" length="3.23" shape="799.23,781.42 799.20,780.53 799.89,779.96 801.31,779.73"/>
    </edge>
    <edge id=":3776399283_3" function="internal">
        <lane id=":3776399283_3_0" index="0" disallow="tram rail_urban rail rail_electric rail_fast ship container cable_car subway aircraft wheelchair scooter drone" speed="6.51" length="8.80" shape="798.45,772.51 797.86,774.83 798.14,776.81 799.29,778.44 801.31,779.73"/>
    </edge>
    <edge id=":3776399283_4" function="internal">
        <lane id=":3776399283_4_0" index="0" disallow="tram rail_urban rail rail_electric rail_fast ship container cable_car subway aircraft wheelchair scooter drone" speed="18.05" length="13.86" shape="798.45,772.51 797.04,775.79 795.60,778.82 794.02,781.79 792.22,784.87"/>
    </edge>
    <edge id=":3776399283_5" function="internal">
        <lane id=":3776399283_5_0" index="0" disallow="tram rail_urban rail rail_electric rail_fast ship container cable_car subway aircraft wheelchair scooter drone" speed="3.65" length="1.30" shape="798.45,772.51 797.37,773.23"/>
    </edge>
    <edge id=":3776399283_10" function="internal">
        <lane id=":3776399283_10_0" index="0" disallow="tram rail_urban rail rail_electric rail_fast ship container cable_car subway aircraft wheelchair scooter drone" speed="3.65" length="3.37" shape="797.37,773.23 797.25,773.31 796.36,773.38 795.77,772.70 795.49,771.29"/>
    </edge>
    <edge id=":3776399283_6" function="internal">
        <lane id=":3776399283_6_0" index="0" disallow="tram rail_urban rail rail_electric rail_fast ship container cable_car subway aircraft wheelchair scooter drone" speed="18.05" length="13.35" shape="789.48,783.20 791.25,780.19 792.75,777.38 794.11,774.50 795.49,771.29"/>
    </edge>
    <edge id=":3776399283_7" function="internal">
        <lane id=":3776399283_7_0" index="0" disallow="tram rail_urban rail rail_electric rail_fast ship container cable_car subway aircraft wheelchair scooter drone" speed="8.24" length="13.71" shape="789.48,783.20 791.81,780.39 794.55,778.87 797.72,778.65 801.31,779.73"/>
    </edge>
    <edge id=":3776399283_8" function="internal">
        <lane id=":3776399283_8_0" index="0" disallow="tram rail_urban rail rail_electric rail_fast ship container cable_car subway aircraft wheelchair scooter drone" speed="3.65" length="4.67" shape="789.48,783.20 790.79,782.59 791.68,782.67 792.16,783.43 792.22,784.87"/>
    </edge>
    <edge id=":3776399286_0" function="internal">
        <lane id=":3776399286_0_0" index="0" disallow="tram rail_urban rail rail_electric rail_fast ship container cable_car subway aircraft wheelchair scooter drone" speed="5.73" length="9.19" shape="980.70,234.60 978.14,233.64 976.29,233.91 975.15,235.38 974.71,238.07"/>
    </edge>
    <edge id=":3776399286_1" function="internal">
        <lane id=":3776399286_1_0" index="0" disallow="tram rail_urban rail rail_electric rail_fast ship container cable_car subway aircraft wheelchair scooter drone" speed="13.89" length="15.28" shape="980.70,234.60 977.32,232.86 973.82,231.25 970.24,229.84 966.62,228.72"/>
    </edge>
    <edge id=":3776399286_2" function="internal">
        <lane id=":3776399286_2_0" index="0" disallow="tram rail_urban rail rail_electric rail_fast ship container cable_car subway aircraft wheelchair scooter drone" speed="3.65" length="1.44" shape="980.70,234.60 980.02,233.32"/>
    </edge>
    <edge id=":3776399286_9" function="internal">
        <lane id=":3776399286_9_0" index="0" disallow="tram rail_urban rail rail_electric rail_fast ship container cable_car subway aircraft wheelchair scooter drone" speed="3.65" length="3.23" shape="980.02,233.32 980.04,232.43 980.77,231.91 982.21,231.78"/>
    </edge>
    <edge id=":3776399286_3" function="internal">
        <lane id=":3776399286_3_0" index="0" disallow="tram rail_urban rail rail_electric rail_fast ship container cable_car subway aircraft wheelchair scooter drone" speed="13.89" length="16.03" shape="967.44,225.62 971.17,226.79 974.99,228.29 978.72,230.00 982.21,231.78"/>
    </edge>
    <edge id=":3776399286_4" function="internal">
        <lane id=":3776399286_4_0" index="0" disallow="tram rail_urban rail rail_electric rail_fast ship container cable_car subway aircraft wheelchair scooter drone" speed="9.19" length="3.91" shape="967.44,225.62 970.72,227.15 970.92,227.37"/>
    </edge>
    <edge id=":3776399286_5" function="internal">
        <lane id=":3776399286_5_0" index="0" disallow="tram rail_urban rail rail_electric rail_fast ship container cable_car subway aircraft wheelchair scooter drone" speed="3.65" length="1.44" shape="967.44,225.62 968.40,226.70"/>
    </edge>
    <edge id=":3776399286_10" function="internal">
        <lane id=":3776399286_10_0" index="0" disallow="tram rail_urban rail rail_electric rail_fast ship container cable_car subway aircraft wheelchair scooter drone" speed="9.19" length="11.76" shape="970.92,227.37 973.03,229.73 974.36,233.37 974.71,238.07"/>
    </edge>
    <edge id=":3776399286_11" function="internal">
        <lane id=":3776399286_11_0" index="0" disallow="tram rail_urban rail rail_electric rail_fast ship container cable_car subway aircraft wheelchair scooter drone" speed="3.65" length="3.23" shape="968.40,226.70 968.58,227.58 967.99,228.25 966.62,228.72"/>
    </edge>
    <edge id=":3776399286_6" function="internal">
        <lane id=":3776399286_6_0" index="0" disallow="tram rail_urban rail rail_electric rail_fast ship container cable_car subway aircraft wheelchair scooter drone" speed="7.91" length="11.36" shape="971.52,237.99 971.28,234.44 970.39,231.71 968.84,229.80 966.62,228.72"/>
    </edge>
    <edge id=":3776399286_7" function="internal">
        <lane id=":3776399286_7_0" index="0" disallow="tram rail_urban rail rail_electric rail_fast ship container cable_car subway aircraft wheelchair scooter drone" speed="7.43" length="16.42" shape="971.52,237.99 972.29,233.18 974.34,230.54 977.64,230.07 982.21,231.78"/>
    </edge>
    <edge id=":3776399286_8" function="internal">
        <lane id=":3776399286_8_0" index="0" disallow="tram rail_urban rail rail_electric rail_fast ship container cable_car subway aircraft wheelchair scooter drone" speed="3.65" length="4.67" shape="971.52,237.99 972.35,236.81 973.15,236.43 973.94,236.85 974.71,238.07"/>
    </edge>
    <edge id=":3776399287_0" function="internal">
        <lane id=":3776399287_0_0" index="0" disallow="tram rail_urban rail rail_electric rail_fast ship container cable_car subway aircraft wheelchair scooter drone" speed="6.99" length="9.68" shape="956.34,488.96 953.64,488.50 951.40,488.90 949.62,490.15 948.30,492.25"/>
    </edge>
    <edge id=":3776399287_1" function="internal">
        <lane id=":3776399287_1_0" index="0" disallow="tram rail_urban rail rail_electric rail_fast ship container cable_car subway aircraft wheelchair scooter drone" speed="22.22" length="15.33" shape="956.34,488.96 952.73,487.77 949.12,486.38 945.59,484.82 942.19,483.12"/>
    </edge>
    <edge id=":3776399287_2" function="internal">
        <lane id=":3776399287_2_0" index="0" disallow="tram rail_urban rail rail_electric rail_fast ship container cable_car subway aircraft wheelchair scooter drone" speed="7.83" length="4.37" shape="956.34,488.96 952.66,487.24 952.45,487.00"/>
    </edge>
    <edge id=":3776399287_3" function="internal">
        <lane id=":3776399287_3_0" index="0" disallow="tram rail_urban rail rail_electric rail_fast ship container cable_car subway aircraft wheelchair scooter drone" speed="3.65" length="1.44" shape="956.34,488.96 955.42,487.84"/>
    </edge>
    <edge id=":3776399287_16" function="internal">
        <lane id=":3776399287_16_0" index="0" disallow="tram rail_urban rail rail_electric rail_fast ship container cable_car subway aircraft wheelchair scooter drone" speed="7.83" length="10.23" shape="952.45,487.00 950.54,484.79 949.99,481.59 951.01,477.66"/>
    </edge>
    <edge id=":3776399287_17" function="internal">
        <lane id=":3776399287_17_0" index="0" disallow="tram rail_urban rail rail_electric rail_fast ship container cable_car subway aircraft wheelchair scooter drone" speed="3.65" length="3.23" shape="955.42,487.84 955.27,486.96 955.88,486.31 957.26,485.89"/>
    </edge>
    <edge id=":3776399287_4" function="internal">
        <lane id=":3776399287_4_0" index="0" disallow="tram rail_urban rail rail_electric rail_fast ship container cable_car subway aircraft wheelchair scooter drone" speed="6.29" length="9.04" shape="953.97,478.90 953.33,481.33 953.67,483.31 954.98,484.83 957.26,485.89"/>
    </edge>
    <edge id=":3776399287_5" function="internal">
        <lane id=":3776399287_5_0" index="0" disallow="tram rail_urban rail rail_electric rail_fast ship container cable_car subway aircraft wheelchair scooter drone" speed="18.05" length="14.51" shape="953.97,478.90 948.30,492.25"/>
    </edge>
    <edge id=":3776399287_6" function="internal">
        <lane id=":3776399287_6_0" index="0" disallow="tram rail_urban rail rail_electric rail_fast ship container cable_car subway aircraft wheelchair scooter drone" speed="7.85" length="14.59" shape="953.97,478.90 951.88,482.38 949.22,484.25 945.99,484.49 942.19,483.12"/>
    </edge>
    <edge id=":3776399287_7" function="internal">
        <lane id=":3776399287_7_0" index="0" disallow="tram rail_urban rail rail_electric rail_fast ship container cable_car subway aircraft wheelchair scooter drone" speed="3.65" length="4.67" shape="953.97,478.90 952.76,479.70 951.87,479.76 951.29,479.08 951.01,477.66"/>
    </edge>
    <edge id=":3776399287_8" function="internal">
        <lane id=":3776399287_8_0" index="0" disallow="tram rail_urban rail rail_electric rail_fast ship container cable_car subway aircraft wheelchair scooter drone" speed="6.32" length="9.07" shape="943.70,480.29 946.06,481.15 948.06,480.99 949.72,479.83 951.01,477.66"/>
    </edge>
    <edge id=":3776399287_9" function="internal">
        <lane id=":3776399287_9_0" index="0" disallow="tram rail_urban rail rail_electric rail_fast ship container cable_car subway aircraft wheelchair scooter drone" speed="22.22" length="14.70" shape="943.70,480.29 947.00,481.96 950.34,483.44 953.74,484.74 957.26,485.89"/>
    </edge>
    <edge id=":3776399287_10" function="internal">
        <lane id=":3776399287_10_0" index="0" disallow="tram rail_urban rail rail_electric rail_fast ship container cable_car subway aircraft wheelchair scooter drone" speed="8.30" length="4.01" shape="943.70,480.29 946.95,482.63"/>
    </edge>
    <edge id=":3776399287_11" function="internal">
        <lane id=":3776399287_11_0" index="0" disallow="tram rail_urban rail rail_electric rail_fast ship container cable_car subway aircraft wheelchair scooter drone" speed="3.65" length="1.44" shape="943.70,480.29 944.38,481.57"/>
    </edge>
    <edge id=":3776399287_18" function="internal">
        <lane id=":3776399287_18_0" index="0" disallow="tram rail_urban rail rail_electric rail_fast ship container cable_car subway aircraft wheelchair scooter drone" speed="8.30" length="10.34" shape="946.95,482.63 948.81,485.40 949.26,488.61 948.30,492.25"/>
    </edge>
    <edge id=":3776399287_19" function="internal">
        <lane id=":3776399287_19_0" index="0" disallow="tram rail_urban rail rail_electric rail_fast ship container cable_car subway aircraft wheelchair scooter drone" speed="3.65" length="3.23" shape="944.38,481.57 944.35,482.46 943.62,482.98 942.19,483.12"/>
    </edge>
    <edge id=":3776399287_12" function="internal">
        <lane id=":3776399287_12_0" index="0" disallow="tram rail_urban rail rail_electric rail_fast ship container cable_car subway aircraft wheelchair scooter drone" speed="6.86" length="9.50" shape="945.36,490.99 945.97,488.61 945.65,486.51 944.39,484.68 942.19,483.12"/>
    </edge>
    <edge id=":3776399287_13" function="internal">
        <lane id=":3776399287_13_0" index="0" disallow="tram rail_urban rail rail_electric rail_fast ship container cable_car subway aircraft wheelchair scooter drone" speed="18.05" length="14.48" shape="945.36,490.99 951.01,477.66"/>
    </edge>
    <edge id=":3776399287_14" function="internal">
        <lane id=":3776399287_14_0" index="0" disallow="tram rail_urban rail rail_electric rail_fast ship container cable_car subway aircraft wheelchair scooter drone" speed="8.41" length="14.42" shape="945.36,490.99 947.34,487.79 949.99,485.87 953.29,485.24 957.26,485.89"/>
    </edge>
    <edge id=":3776399287_15" function="internal">
        <lane id=":3776399287_15_0" index="0" disallow="tram rail_urban rail rail_electric rail_fast ship container cable_car subway aircraft wheelchair scooter drone" speed="3.65" length="4.67" shape="945.36,490.99 946.57,490.20 947.46,490.15 948.04,490.84 948.30,492.25"/>
    </edge>
    <edge id=":3776399291_0" function="internal">
        <lane id=":3776399291_0_0" index="0" disallow="tram rail_urban rail rail_electric rail_fast ship container cable_car subway aircraft wheelchair scooter drone" speed="22.22" length="14.28" shape="1968.88,460.59 1954.64,461.73"/>
    </edge>
    <edge id=":3776399291_1" function="internal">
        <lane id=":3776399291_1_0" index="0" disallow="tram rail_urban rail rail_electric rail_fast ship container cable_car subway aircraft wheelchair scooter drone" speed="8.42" length="3.71" shape="1968.88,460.59 1965.18,460.27"/>
    </edge>
    <edge id=":3776399291_2" function="internal">
        <lane id=":3776399291_2_0" index="0" disallow="tram rail_urban rail rail_electric rail_fast ship container cable_car subway aircraft wheelchair scooter drone" speed="3.65" length="1.44" shape="1968.88,460.59 1967.63,459.87"/>
    </edge>
    <edge id=":3776399291_9" function="internal">
        <lane id=":3776399291_9_0" index="0" disallow="tram rail_urban rail rail_electric rail_fast ship container cable_car subway aircraft wheelchair scooter drone" speed="8.42" length="10.59" shape="1965.18,460.27 1962.30,458.79 1960.24,456.14 1959.00,452.34"/>
    </edge>
    <edge id=":3776399291_10" function="internal">
        <lane id=":3776399291_10_0" index="0" disallow="tram rail_urban rail rail_electric rail_fast ship container cable_car subway aircraft wheelchair scooter drone" speed="3.65" length="3.23" shape="1967.63,459.87 1967.18,459.09 1967.53,458.27 1968.68,457.40"/>
    </edge>
    <edge id=":3776399291_3" function="internal">
        <lane id=":3776399291_3_0" index="0" disallow="tram rail_urban rail rail_electric rail_fast ship container cable_car subway aircraft wheelchair scooter drone" speed="7.00" length="9.60" shape="1962.14,451.75 1962.97,454.35 1964.34,456.15 1966.24,457.17 1968.68,457.40"/>
    </edge>
    <edge id=":3776399291_4" function="internal">
        <lane id=":3776399291_4_0" index="0" disallow="tram rail_urban rail rail_electric rail_fast ship container cable_car subway aircraft wheelchair scooter drone" speed="7.84" length="14.55" shape="1962.14,451.75 1962.32,455.78 1961.13,458.79 1958.57,460.77 1954.64,461.73"/>
    </edge>
    <edge id=":3776399291_5" function="internal">
        <lane id=":3776399291_5_0" index="0" disallow="tram rail_urban rail rail_electric rail_fast ship container cable_car subway aircraft wheelchair scooter drone" speed="3.65" length="4.67" shape="1962.14,451.75 1961.58,453.07 1960.87,453.62 1960.00,453.37 1959.00,452.34"/>
    </edge>
    <edge id=":3776399291_6" function="internal">
        <lane id=":3776399291_6_0" index="0" disallow="tram rail_urban rail rail_electric rail_fast ship container cable_car subway aircraft wheelchair scooter drone" speed="6.32" length="9.04" shape="1954.34,458.54 1956.78,457.95 1958.37,456.72 1959.11,454.85 1959.00,452.34"/>
    </edge>
    <edge id=":3776399291_7" function="internal">
        <lane id=":3776399291_7_0" index="0" disallow="tram rail_urban rail rail_electric rail_fast ship container cable_car subway aircraft wheelchair scooter drone" speed="22.22" length="14.38" shape="1954.34,458.54 1968.68,457.40"/>
    </edge>
    <edge id=":3776399291_8" function="internal">
        <lane id=":3776399291_8_0" index="0" disallow="tram rail_urban rail rail_electric rail_fast ship container cable_car subway aircraft wheelchair scooter drone" speed="3.65" length="1.44" shape="1954.34,458.54 1955.61,459.23"/>
    </edge>
    <edge id=":3776399291_11" function="internal">
        <lane id=":3776399291_11_0" index="0" disallow="tram rail_urban rail rail_electric rail_fast ship container cable_car subway aircraft wheelchair scooter drone" speed="3.65" length="3.23" shape="1955.61,459.23 1956.08,459.98 1955.76,460.82 1954.64,461.73"/>
    </edge>
    <edge id=":3776399295_0" function="internal">
        <lane id=":3776399295_0_0" index="0" disallow="tram rail_urban rail rail_electric rail_fast ship container cable_car subway aircraft wheelchair scooter drone" speed="22.22" length="14.48" shape="1252.30,828.46 1238.11,831.39"/>
    </edge>
    <edge id=":3776399295_1" function="internal">
        <lane id=":3776399295_1_0" index="0" disallow="tram rail_urban rail rail_electric rail_fast ship container cable_car subway aircraft wheelchair scooter drone" speed="7.95" length="4.15" shape="1252.30,828.46 1248.38,828.74 1248.17,828.66"/>
    </edge>
    <edge id=":3776399295_2" function="internal">
        <lane id=":3776399295_2_0" index="0" disallow="tram rail_urban rail rail_electric rail_fast ship container cable_car subway aircraft wheelchair scooter drone" speed="3.65" length="1.44" shape="1252.30,828.46 1250.96,827.93"/>
    </edge>
    <edge id=":3776399295_9" function="internal">
        <lane id=":3776399295_9_0" index="0" disallow="tram rail_urban rail rail_electric rail_fast ship container cable_car subway aircraft wheelchair scooter drone" speed="7.95" length="10.14" shape="1248.17,828.66 1245.34,827.68 1243.19,825.29 1241.92,821.57"/>
    </edge>
    <edge id=":3776399295_10" function="internal">
        <lane id=":3776399295_10_0" index="0" disallow="tram rail_urban rail rail_electric rail_fast ship container cable_car subway aircraft wheelchair scooter drone" speed="3.65" length="3.23" shape="1250.96,827.93 1250.40,827.23 1250.62,826.37 1251.62,825.33"/>
    </edge>
    <edge id=":3776399295_3" function="internal">
        <lane id=":3776399295_3_0" index="0" disallow="tram rail_urban rail rail_electric rail_fast ship container cable_car subway aircraft wheelchair scooter drone" speed="6.45" length="9.03" shape="1245.06,820.98 1245.86,823.33 1247.23,824.84 1249.14,825.51 1251.62,825.33"/>
    </edge>
    <edge id=":3776399295_4" function="internal">
        <lane id=":3776399295_4_0" index="0" disallow="tram rail_urban rail rail_electric rail_fast ship container cable_car subway aircraft wheelchair scooter drone" speed="8.04" length="14.25" shape="1245.06,820.98 1245.24,824.90 1244.15,827.94 1241.77,830.11 1238.11,831.39"/>
    </edge>
    <edge id=":3776399295_5" function="internal">
        <lane id=":3776399295_5_0" index="0" disallow="tram rail_urban rail rail_electric rail_fast ship container cable_car subway aircraft wheelchair scooter drone" speed="3.65" length="4.67" shape="1245.06,820.98 1244.50,822.30 1243.79,822.84 1242.93,822.60 1241.92,821.57"/>
    </edge>
    <edge id=":3776399295_6" function="internal">
        <lane id=":3776399295_6_0" index="0" disallow="tram rail_urban rail rail_electric rail_fast ship container cable_car subway aircraft wheelchair scooter drone" speed="6.56" length="9.12" shape="1237.49,828.25 1239.82,827.43 1241.34,826.04 1242.04,824.09 1241.92,821.57"/>
    </edge>
    <edge id=":3776399295_7" function="internal">
        <lane id=":3776399295_7_0" index="0" disallow="tram rail_urban rail rail_electric rail_fast ship container cable_car subway aircraft wheelchair scooter drone" speed="22.22" length="14.43" shape="1237.49,828.25 1251.62,825.33"/>
    </edge>
    <edge id=":3776399295_8" function="internal">
        <lane id=":3776399295_8_0" index="0" disallow="tram rail_urban rail rail_electric rail_fast ship container cable_car subway aircraft wheelchair scooter drone" speed="3.65" length="1.44" shape="1237.49,828.25 1238.83,828.81"/>
    </edge>
    <edge id=":3776399295_11" function="internal">
        <lane id=":3776399295_11_0" index="0" disallow="tram rail_urban rail rail_electric rail_fast ship container cable_car subway aircraft wheelchair scooter drone" speed="3.65" length="3.23" shape="1238.83,828.81 1239.37,829.51 1239.14,830.38 1238.11,831.39"/>
    </edge>
    <edge id=":3776399296_0" function="internal">
        <lane id=":3776399296_0_0" index="0" disallow="tram rail_urban rail rail_electric rail_fast ship container cable_car subway aircraft wheelchair scooter drone" speed="6.64" length="9.15" shape="1261.37,579.14 1258.85,579.09 1256.89,579.84 1255.50,581.37 1254.68,583.70"/>
    </edge>
    <edge id=":3776399296_1" function="internal">
        <lane id=":3776399296_1_0" index="0" disallow="tram rail_urban rail rail_electric rail_fast ship container cable_car subway aircraft wheelchair scooter drone" speed="22.22" length="15.04" shape="1261.37,579.14 1257.67,578.50 1253.99,577.73 1250.33,576.84 1246.71,575.83"/>
    </edge>
    <edge id=":3776399296_2" function="internal">
        <lane id=":3776399296_2_0" index="0" disallow="tram rail_urban rail rail_electric rail_fast ship container cable_car subway aircraft wheelchair scooter drone" speed="8.07" length="4.15" shape="1261.37,579.14 1257.65,577.97 1257.46,577.81"/>
    </edge>
    <edge id=":3776399296_3" function="internal">
        <lane id=":3776399296_3_0" index="0" disallow="tram rail_urban rail rail_electric rail_fast ship container cable_car subway aircraft wheelchair scooter drone" speed="3.65" length="1.44" shape="1261.37,579.14 1260.31,578.16"/>
    </edge>
    <edge id=":3776399296_16" function="internal">
        <lane id=":3776399296_16_0" index="0" disallow="tram rail_urban rail rail_electric rail_fast ship container cable_car subway aircraft wheelchair scooter drone" speed="8.07" length="10.40" shape="1257.46,577.81 1255.20,575.84 1254.02,572.74 1254.12,568.67"/>
    </edge>
    <edge id=":3776399296_17" function="internal">
        <lane id=":3776399296_17_0" index="0" disallow="tram rail_urban rail rail_electric rail_fast ship container cable_car subway aircraft wheelchair scooter drone" speed="3.65" length="3.23" shape="1260.31,578.16 1260.04,577.31 1260.56,576.58 1261.86,575.97"/>
    </edge>
    <edge id=":3776399296_4" function="internal">
        <lane id=":3776399296_4_0" index="0" disallow="tram rail_urban rail rail_electric rail_fast ship container cable_car subway aircraft wheelchair scooter drone" speed="6.59" length="9.36" shape="1257.28,569.18 1257.21,571.83 1257.95,573.85 1259.50,575.23 1261.86,575.97"/>
    </edge>
    <edge id=":3776399296_5" function="internal">
        <lane id=":3776399296_5_0" index="0" disallow="tram rail_urban rail rail_electric rail_fast ship container cable_car subway aircraft wheelchair scooter drone" speed="13.89" length="14.75" shape="1257.28,569.18 1254.68,583.70"/>
    </edge>
    <edge id=":3776399296_6" function="internal">
        <lane id=":3776399296_6_0" index="0" disallow="tram rail_urban rail rail_electric rail_fast ship container cable_car subway aircraft wheelchair scooter drone" speed="7.79" length="14.69" shape="1257.28,569.18 1256.05,573.09 1253.88,575.50 1250.77,576.42 1246.71,575.83"/>
    </edge>
    <edge id=":3776399296_7" function="internal">
        <lane id=":3776399296_7_0" index="0" disallow="tram rail_urban rail rail_electric rail_fast ship container cable_car subway aircraft wheelchair scooter drone" speed="3.65" length="4.67" shape="1257.28,569.18 1256.30,570.23 1255.45,570.50 1254.72,569.98 1254.12,568.67"/>
    </edge>
    <edge id=":3776399296_8" function="internal">
        <lane id=":3776399296_8_0" index="0" disallow="tram rail_urban rail rail_electric rail_fast ship container cable_car subway aircraft wheelchair scooter drone" speed="6.25" length="9.05" shape="1247.61,572.76 1250.11,573.12 1252.03,572.56 1253.37,571.07 1254.12,568.67"/>
    </edge>
    <edge id=":3776399296_9" function="internal">
        <lane id=":3776399296_9_0" index="0" disallow="tram rail_urban rail rail_electric rail_fast ship container cable_car subway aircraft wheelchair scooter drone" speed="22.22" length="14.62" shape="1247.61,572.76 1251.17,573.75 1254.68,574.61 1258.23,575.35 1261.86,575.97"/>
    </edge>
    <edge id=":3776399296_10" function="internal">
        <lane id=":3776399296_10_0" index="0" disallow="tram rail_urban rail rail_electric rail_fast ship container cable_car subway aircraft wheelchair scooter drone" speed="8.38" length="4.17" shape="1247.61,572.76 1251.33,574.41 1251.40,574.48"/>
    </edge>
    <edge id=":3776399296_11" function="internal">
        <lane id=":3776399296_11_0" index="0" disallow="tram rail_urban rail rail_electric rail_fast ship container cable_car subway aircraft wheelchair scooter drone" speed="3.65" length="1.44" shape="1247.61,572.76 1248.54,573.87"/>
    </edge>
    <edge id=":3776399296_18" function="internal">
        <lane id=":3776399296_18_0" index="0" disallow="tram rail_urban rail rail_electric rail_fast ship container cable_car subway aircraft wheelchair scooter drone" speed="8.38" length="10.39" shape="1251.40,574.48 1253.74,576.78 1254.86,579.87 1254.68,583.70"/>
    </edge>
    <edge id=":3776399296_19" function="internal">
        <lane id=":3776399296_19_0" index="0" disallow="tram rail_urban rail rail_electric rail_fast ship container cable_car subway aircraft wheelchair scooter drone" speed="3.65" length="3.23" shape="1248.54,573.87 1248.70,574.75 1248.09,575.40 1246.71,575.83"/>
    </edge>
    <edge id=":3776399296_12" function="internal">