<?xml version="1.0" encoding="UTF-8"?>

<!-- generated on 2024-10-24 11:21:26.457429 by randomTrips.py v1_20_0+0002-343658e7c64
<configuration>
    <net-file value="map.net.xml"/>
    <route-file value="map.rou.xml"/>
    <end value="100.0"/>
</configuration>
-->

<!-- generated on 2024-10-24 11:21:26 by Eclipse SUMO duarouter Version 1.20.0
<configuration xmlns:xsi="http://www.w3.org/2001/XMLSchema-instance" xsi:noNamespaceSchemaLocation="http://sumo.dlr.de/xsd/duarouterConfiguration.xsd">

    <input>
        <net-file value="map.net.xml"/>
        <route-files value="trips.trips.xml"/>
    </input>

    <output>
        <output-file value="map.rou.xml"/>
        <alternatives-output value="NUL"/>
    </output>

    <time>
        <begin value="0"/>
        <end value="100.0"/>
    </time>

    <report>
        <no-warnings value="true"/>
        <ignore-errors value="true"/>
        <no-step-log value="true"/>
    </report>

</configuration>
-->

<routes xmlns:xsi="http://www.w3.org/2001/XMLSchema-instance" xsi:noNamespaceSchemaLocation="http://sumo.dlr.de/xsd/routes_file.xsd">
    <vehicle id="0" depart="0.00">
        <route edges="374272608#12 -374272608#12 -374272608#11 -374272608#10 -374272608#9 -374272608#8 -374272608#7 -374272608#6 -374272608#5 -374272608#4 -374272608#3 669107224#0 -1083929572"/>
    </vehicle>
    <vehicle id="1" depart="1.00">
        <route edges="-669107174#0 -669107177#0"/>
    </vehicle>
    <vehicle id="2" depart="2.00">
        <route edges="374272608#8 -374272608#8 -374272608#7 -374272608#6 -374272608#5 -374272608#4 374272608#4"/>
    </vehicle>
    <vehicle id="3" depart="3.00">
        <route edges="669107220 -669107220 -374272608#14 -374272608#13 -374272608#12 -374272608#11"/>
    </vehicle>
    <vehicle id="4" depart="4.00">
        <route edges="-669107222 -669107177#3 -1083927634 -374272608#6 -374272608#5 -374272608#4 -374272608#3 -374272607#2 -374272607#1 -374272607#0"/>
    </vehicle>
    <vehicle id="5" depart="5.00">
        <route edges="-374272608#4 -374272608#3 -374272608#2 -669107238#1 1083929572"/>
    </vehicle>
    <vehicle id="6" depart="6.00">
        <route edges="-1083927844 374272608#6 374272608#7 374272608#8 374272608#9 -374272608#9"/>
    </vehicle>
    <vehicle id="7" depart="7.00">
        <route edges="374272608#13 -374272608#13 1083930095"/>
    </vehicle>
    <vehicle id="8" depart="8.00">
        <route edges="-374272608#4 -374272608#3 -374272608#2 -374272608#1 374272608#1"/>
    </vehicle>
    <vehicle id="9" depart="9.00">
        <route edges="669107177#5 -669107177#5 -669107177#4 -669107177#3 -1083927634"/>
    </vehicle>
    <vehicle id="10" depart="10.00">
        <route edges="669107177#5 669107215#1 -374272608#10 -374272608#9 -374272608#8 -374272608#7 -374272608#6 374272608#6"/>
    </vehicle>
    <vehicle id="11" depart="11.00">
        <route edges="-669107177#6 -669107177#5 -669107213#0 -374272608#8 -374272608#7 -374272608#6 -374272608#5 -374272608#4"/>
    </vehicle>
    <vehicle id="12" depart="12.00">
        <route edges="669107244#1 -669107224#1 -669107224#0 374272608#3 374272608#4 374272608#5 374272608#6 374272608#7 374272608#8 374272608#9 374272608#10 -669107215#1"/>
    </vehicle>
    <vehicle id="13" depart="13.00">
        <route edges="-1083930095 -374272608#12"/>
    </vehicle>
    <vehicle id="14" depart="14.00">
        <route edges="669107177#9 -374272608#15 -374272608#14 -374272608#13 -374272608#12 -374272608#11 -374272608#10 374272608#10"/>
    </vehicle>
    <vehicle id="15" depart="15.00">
        <route edges="669107177#5 -669107177#5 -669107177#4 -669107177#3 -669107177#2 -669107177#1 669107174#0"/>
    </vehicle>
    <vehicle id="16" depart="16.00">
        <route edges="-901642709 374272608#8 669107213#0 669107177#5 669107177#6 669107177#7 901642707"/>
    </vehicle>
    <vehicle id="17" depart="17.00">
        <route edges="-669107210 -374272608#15 -374272608#14 -374272608#13 -374272608#12 -374272608#11 -374272608#10 -374272608#9 -374272608#8 -374272608#7 -374272608#6 -374272608#5 -374272608#4 -374272608#3 -374272607#2 -374272607#1 -374272607#0 374272606"/>
    </vehicle>
    <vehicle id="18" depart="18.00">
        <route edges="669107177#7 901642707 -374272608#13 -374272608#12 374272608#12"/>
    </vehicle>
    <vehicle id="19" depart="19.00">
        <route edges="669107213#0 -669107213#0 -374272608#8 -374272608#7 -374272608#6 -374272608#5 -374272608#4 -374272608#3 -374272607#2 -374272607#1 374272607#1"/>
    </vehicle>
    <vehicle id="20" depart="20.00">
        <route edges="374272608#5 -374272608#5 -374272608#4 -374272608#3 -374272607#2 -374272607#1"/>
    </vehicle>
    <vehicle id="21" depart="21.00">
        <route edges="-374272608#5 374272608#5 374272608#6 374272608#7 374272608#8 374272608#9 374272608#10 374272608#11 374272608#12 374272608#13 -901642707 -669107177#7"/>
    </vehicle>
    <vehicle id="22" depart="22.00">
        <route edges="-1083930094 -374272608#11 -669107215#1 -669107177#5 -669107177#4 -669107177#3 -669107177#2 -669107177#1"/>
    </vehicle>
    <vehicle id="23" depart="23.00">
        <route edges="-374272606 374272607#0 374272607#1 374272607#2 374272608#3 374272608#4 374272608#5 374272608#6 374272608#7 374272608#8 669107213#0 669107177#5 669107177#6 -669107177#6"/>
    </vehicle>
    <vehicle id="24" depart="24.00">
        <route edges="374272608#12 -374272608#12 -374272608#11 -374272608#10 -374272608#9 -374272608#8 -374272608#7 -374272608#6 -374272608#5 -374272608#4 -374272608#3 669107224#0 669107224#1 -669107224#1"/>
    </vehicle>
    <vehicle id="25" depart="25.00">
        <route edges="-669107177#9 -669107177#8 -669107177#7 -669107177#6 -669107177#5 -669107213#0 -374272608#8 -374272608#7 -374272608#6 -374272608#5 -669107174#0"/>
    </vehicle>
    <vehicle id="26" depart="26.00">
        <route edges="-374272608#9 -374272608#8 -374272608#7 -374272608#6 -374272608#5 -374272608#4 -374272608#3 -374272608#2 -669107238#1 -669107238#0 669107244#1"/>
    </vehicle>
    <vehicle id="27" depart="27.00">
        <route edges="374272608#13 -374272608#13 -374272608#12 -374272608#11 374272608#11"/>
    </vehicle>
    <vehicle id="28" depart="28.00">
        <route edges="-374272608#13 -374272608#12 -374272608#11 -374272608#10 -374272608#9 -374272608#8 -374272608#7 -374272608#6 -374272608#5 -669107174#0 669107174#0"/>
    </vehicle>
    <vehicle id="29" depart="29.00">
        <route edges="-374272608#12 -374272608#11 -374272608#10 -374272608#9 -374272608#8 -374272608#7 -374272608#6 -374272608#5 -374272608#4 -374272608#3 -374272608#2 -669107238#1 -669107238#0"/>
    </vehicle>
    <vehicle id="30" depart="30.00">
        <route edges="901642707 374272608#14"/>
    </vehicle>
    <vehicle id="31" depart="31.00">
        <route edges="1083927902 374272608#4 374272608#5"/>
    </vehicle>
    <vehicle id="32" depart="32.00">
        <route edges="669107177#9 -669107177#9 -669107177#8 -669107177#7 -669107177#6 -669107177#5 -669107177#4 669107177#4"/>
    </vehicle>
    <vehicle id="33" depart="33.00">
        <route edges="-374272608#5 -374272608#4 -374272608#3 -374272607#2 -374272607#1 -374272607#0"/>
    </vehicle>
    <vehicle id="34" depart="34.00">
        <route edges="-669107177#3 669107177#3 669107177#4 669107177#5 -669107177#5"/>
    </vehicle>
    <vehicle id="35" depart="35.00">
        <route edges="-374272608#3 -374272608#2 -669107238#1 -669107238#0 669107244#1"/>
    </vehicle>
    <vehicle id="36" depart="36.00">
        <route edges="669107215#0 669107215#1 -374272608#10 -374272608#9 -374272608#8 -374272608#7 -374272608#6 -374272608#5 -374272608#4 -374272608#3 -374272607#2 -374272607#1 -374272607#0 -669107182"/>
    </vehicle>
    <vehicle id="37" depart="37.00">
        <route edges="374272608#14 -374272608#14 -374272608#13 -374272608#12 -374272608#11 -374272608#10 -374272608#9 -374272608#8 -374272608#7 -374272608#6 -374272608#5 -374272608#4 -374272608#3 -374272608#2 -669107242"/>
    </vehicle>
    <vehicle id="38" depart="38.00">
        <route edges="669107224#1 -669107224#1 -669107224#0 374272608#3 374272608#4 374272608#5 374272608#6 1083927634"/>
    </vehicle>
    <vehicle id="39" depart="39.00">
        <route edges="-374272608#9 669107213#0 -669107177#4 -669107177#3"/>
    </vehicle>
    <vehicle id="40" depart="40.00">
        <route edges="1083929572 -669107224#0 374272608#3 374272608#4 374272608#5 374272608#6 374272608#7 374272608#8 374272608#9 374272608#10 -669107215#1 -669107177#5"/>
    </vehicle>
    <vehicle id="41" depart="41.00">
        <route edges="374272607#1 374272607#2 669107224#0 669107224#1"/>
    </vehicle>
    <vehicle id="42" depart="42.00">
        <route edges="-669107213#1 -669107177#4 -669107177#3 -669107177#2 -669107177#1 -669107177#0"/>
    </vehicle>
    <vehicle id="43" depart="43.00">
        <route edges="901642709 -669107244#2 -669107244#1 669107238#0 1083929572"/>
    </vehicle>
    <vehicle id="44" depart="44.00">
        <route edges="-1083930095 -374272608#12 -374272608#11 -374272608#10 -374272608#9 -374272608#8 -374272608#7 -374272608#6 -374272608#5 -374272608#4 -374272608#3 -374272607#2"/>
    </vehicle>
    <vehicle id="45" depart="45.00">
        <route edges="-374272607#0 374272607#0 374272607#1 374272607#2 374272608#3 374272608#4 374272608#5 374272608#6 374272608#7 374272608#8 374272608#9 374272608#10 374272608#11 374272608#12 374272608#13"/>
    </vehicle>
    <vehicle id="46" depart="46.00">
        <route edges="669107177#3 -669107177#3 -1083927634 374272608#7 901642709 -669107244#2"/>
    </vehicle>
    <vehicle id="47" depart="47.00">
        <route edges="-1083929800 -374272608#9 -374272608#8 -374272608#7 -374272608#6 -374272608#5 -374272608#4 -374272608#3 -374272608#2 -669107238#1 -669107238#0"/>
    </vehicle>
    <vehicle id="48" depart="48.00">
        <route edges="901642709 -901642709 374272608#8 669107213#0 669107177#5 669107177#6 1083929818"/>
    </vehicle>
    <vehicle id="49" depart="49.00">
        <route edges="669107244#2 -901642709 374272608#8 374272608#9 374272608#10 -669107215#1 669107215#1"/>
    </vehicle>
    <vehicle id="50" depart="50.00">
        <route edges="-1083927745 669107177#2 669107177#3 669107177#4 -669107213#0 374272608#9"/>
    </vehicle>
    <vehicle id="51" depart="51.00">
        <route edges="374272608#2 374272608#3 374272608#4 374272608#5 374272608#6 374272608#7 374272608#8 374272608#9 374272608#10 374272608#11 1083930094"/>
    </vehicle>
    <vehicle id="52" depart="52.00">
        <route edges="-374272608#9 374272608#9 374272608#10 374272608#11 374272608#12 374272608#13 374272608#14"/>
    </vehicle>
    <vehicle id="53" depart="53.00">
        <route edges="-374272607#0 374272607#0 374272607#1 374272607#2 374272608#3 374272608#4 374272608#5 374272608#6 374272608#7 374272608#8 374272608#9 374272608#10 374272608#11 374272608#12 374272608#13 374272608#14 669107220 -669107244#3"/>
    </vehicle>
    <vehicle id="54" depart="54.00">
        <route edges="-669107238#0 669107244#1 669107244#2 669107244#3"/>
    </vehicle>
    <vehicle id="55" depart="55.00">
        <route edges="669107215#0 -669107177#5"/>
    </vehicle>
    <vehicle id="56" depart="56.00">
        <route edges="-669107244#3 -901642709 -374272608#7"/>
    </vehicle>
    <vehicle id="57" depart="57.00">
        <route edges="669107224#1 -669107224#1 -669107224#0 374272608#3 374272608#4 374272608#5 374272608#6 374272608#7 374272608#8 374272608#9 374272608#10 374272608#11 374272608#12 374272608#13 374272608#14 669107220"/>
    </vehicle>
    <vehicle id="58" depart="58.00">
        <route edges="-669107177#1 669107177#1 669107177#2 669107177#3 669107177#4 669107177#5 669107215#1 374272608#11 374272608#12 374272608#13 374272608#14"/>
    </vehicle>
    <vehicle id="59" depart="59.00">
        <route edges="374272608#1 374272608#2 374272608#3 374272608#4 -374272608#4"/>
    </vehicle>
    <vehicle id="60" depart="60.00">
        <route edges="669107177#0 669107177#1 669107177#2 669107177#3 669107177#4 669107177#5 669107215#1 374272608#11 1083930094"/>
    </vehicle>
    <vehicle id="61" depart="61.00">
        <route edges="669107177#2 669107177#3 669107177#4 669107177#5 669107177#6 1083929818"/>
    </vehicle>
    <vehicle id="62" depart="62.00">
        <route edges="-1083927634 374272608#7 374272608#8 669107213#0 -669107213#0"/>
    </vehicle>
    <vehicle id="63" depart="63.00">
        <route edges="-1083927844 -374272608#5 -374272608#4 -374272608#3 -374272607#2 669107242"/>
    </vehicle>
    <vehicle id="64" depart="64.00">
        <route edges="669107215#1 -669107215#1 669107177#6 669107177#7 669107177#8 669107177#9"/>
    </vehicle>
    <vehicle id="65" depart="65.00">
        <route edges="-669107177#2 -669107177#1 669107174#0 -374272608#4 -374272608#3 -374272608#2 -374272608#1 -374272608#0"/>
    </vehicle>
    <vehicle id="66" depart="66.00">
        <route edges="669107215#0 669107215#1 -374272608#10 -374272608#9 -374272608#8 -374272608#7 -374272608#6 -374272608#5 -374272608#4 -374272608#3 669107224#0 669107224#1 669107244#2"/>
    </vehicle>
    <vehicle id="67" depart="67.00">
        <route edges="-1083930095 -374272608#12 -374272608#11 -374272608#10 -374272608#9 -374272608#8 -374272608#7 -374272608#6 -374272608#5 -374272608#4 -374272608#3 -374272607#2 -374272607#1 1083928180"/>
    </vehicle>
    <vehicle id="68" depart="68.00">
        <route edges="-1083929818 -669107177#6 -669107177#5 -669107177#4 -669107177#3 -669107177#2 669107177#2"/>
    </vehicle>
    <vehicle id="69" depart="69.00">
        <route edges="669107177#0 669107177#1 669107177#2 669107177#3 669107177#4 669107177#5 669107177#6 669107177#7 669107177#8 669107177#9 -374272608#15"/>
    </vehicle>
    <vehicle id="70" depart="70.00">
        <route edges="-669107242 374272607#2 374272608#3 374272608#4 374272608#5 374272608#6 374272608#7 374272608#8 374272608#9 374272608#10 374272608#11 374272608#12 1083930095"/>
    </vehicle>
    <vehicle id="71" depart="71.00">
        <route edges="-374272608#9 374272608#9 374272608#10 374272608#11 374272608#12 374272608#13 374272608#14 669107220"/>
    </vehicle>
    <vehicle id="72" depart="72.00">
        <route edges="-669107222 -669107177#3 -1083927634 -374272608#6 -374272608#5 -669107174#0"/>
    </vehicle>
    <vehicle id="73" depart="73.00">
        <route edges="-901642709 -374272608#7 -374272608#6 -374272608#5 -669107174#0 669107174#0"/>
    </vehicle>
    <vehicle id="74" depart="74.00">
        <route edges="-374272608#2 -669107242 -374272607#1 -374272607#0 -669107182"/>
    </vehicle>
    <vehicle id="75" depart="75.00">
        <route edges="901642709 -901642709 374272608#8 374272608#9 374272608#10 374272608#11 374272608#12 374272608#13 374272608#14 374272608#15"/>
    </vehicle>
    <vehicle id="76" depart="76.00">
        <route edges="-669107224#0 374272608#3 374272608#4 374272608#5 374272608#6 374272608#7 374272608#8 374272608#9 1083929800"/>
    </vehicle>
    <vehicle id="77" depart="77.00">
        <route edges="-374272607#1 374272607#1 374272607#2 374272608#3 374272608#4 374272608#5 374272608#6 1083927634 -669107177#2 -669107177#1"/>
    </vehicle>
    <vehicle id="78" depart="78.00">
        <route edges="-669107177#6 -669107177#5 -669107213#0 -374272608#8 -374272608#7 -374272608#6 -374272608#5 -374272608#4 -374272608#3 -374272607#2 374272607#2"/>
    </vehicle>
    <vehicle id="79" depart="79.00">
        <route edges="-374272608#5 -669107174#0 -669107177#0"/>
    </vehicle>
    <vehicle id="80" depart="80.00">
        <route edges="-1083929818 -669107177#6 669107215#1 374272608#11 374272608#12 374272608#13"/>
    </vehicle>
    <vehicle id="81" depart="81.00">
        <route edges="-374272608#5 -374272608#4 -374272608#3 669107224#0 669107224#1"/>
    </vehicle>
    <vehicle id="82" depart="82.00">
        <route edges="669107182 374272607#0 374272607#1 374272607#2 -374272608#2 -374272608#1"/>
    </vehicle>
    <vehicle id="83" depart="83.00">
        <route edges="-374272608#6 -374272608#5 -374272608#4 -374272608#3 374272608#3"/>
    </vehicle>
    <vehicle id="84" depart="84.00">
        <route edges="-374272608#3 -374272608#2"/>
    </vehicle>
    <vehicle id="85" depart="85.00">
        <route edges="669107242 374272608#2 -374272607#2 -374272607#1 374272607#1"/>
    </vehicle>
    <vehicle id="86" depart="86.00">
        <route edges="-669107242 374272607#2 374272608#3 374272608#4 374272608#5 374272608#6 1083927634 669107177#3 669107177#4"/>
    </vehicle>
    <vehicle id="87" depart="87.00">
        <route edges="669107177#5 669107215#1 -374272608#10 -374272608#9 -374272608#8"/>
    </vehicle>
    <vehicle id="88" depart="88.00">
        <route edges="-374272606 374272607#0 374272607#1 374272607#2 374272608#3 374272608#4 374272608#5 374272608#6 374272608#7 374272608#8 374272608#9 374272608#10 374272608#11 374272608#12 374272608#13 374272608#14 669107220 -669107244#3"/>
    </vehicle>
    <vehicle id="89" depart="89.00">
        <route edges="-669107222 -669107177#3 -1083927634 1083927634"/>
    </vehicle>
    <vehicle id="90" depart="90.00">
        <route edges="374272608#8 -374272608#8 -374272608#7 -374272608#6 -374272608#5 -374272608#4 374272608#4"/>
    </vehicle>
    <vehicle id="91" depart="91.00">
        <route edges="901642707 -374272608#13 -374272608#12"/>
    </vehicle>
    <vehicle id="92" depart="92.00">
        <route edges="-669107215#1"/>
    </vehicle>
    <vehicle id="93" depart="93.00">
        <route edges="669107213#0 -669107177#4 -669107177#3"/>
    </vehicle>
    <vehicle id="94" depart="94.00">
        <route edges="-374272608#15 -374272608#14 -374272608#13 -374272608#12 -374272608#11 -374272608#10 -374272608#9 -374272608#8 901642709 -901642709"/>
    </vehicle>
    <vehicle id="95" depart="95.00">
        <route edges="-669107222 669107177#4 669107177#5 669107177#6 -669107177#6"/>
    </vehicle>
    <vehicle id="96" depart="96.00">
        <route edges="-374272608#7 -374272608#6 -374272608#5 -374272608#4 -374272608#3 -374272608#2 -669107238#1 669107238#1"/>
    </vehicle>
    <vehicle id="97" depart="97.00">
        <route edges="-669107224#1 -669107224#0 374272608#3 374272608#4 374272608#5 374272608#6 374272608#7 374272608#8 374272608#9 374272608#10 -669107215#1 669107215#1"/>
    </vehicle>
    <vehicle id="98" depart="98.00">
        <route edges="1083927634 -1083927634 -374272608#6 -374272608#5 -374272608#4 -374272608#3 -374272607#2"/>
    </vehicle>
    <vehicle id="99" depart="99.00">
        <route edges="901642709 -901642709 374272608#8 374272608#9 374272608#10 374272608#11 374272608#12 374272608#13 374272608#14 374272608#15 669107210"/>
    </vehicle>
</routes>
