<?xml version="1.0" encoding="UTF-8"?>

<!-- generated on 2024-10-21 12:05:37 by Eclipse SUMO netconvert Version 1.20.0
<configuration xmlns:xsi="http://www.w3.org/2001/XMLSchema-instance" xsi:noNamespaceSchemaLocation="http://sumo.dlr.de/xsd/netconvertConfiguration.xsd">

    <input>
        <osm-files value="D:\Traffic-Simulator Project\urban-mobility-simulation\backend\controllers\2024-10-21T16-05-36-362Z\map.osm"/>
    </input>

    <output>
        <output-file value="map.net.xml"/>
    </output>

    <projection>
        <proj.utm value="true"/>
    </projection>

</configuration>
-->

<net version="1.20" junctionCornerDetail="5" limitTurnSpeed="5.50" xmlns:xsi="http://www.w3.org/2001/XMLSchema-instance" xsi:noNamespaceSchemaLocation="http://sumo.dlr.de/xsd/net_file.xsd">

    <location netOffset="-696469.82,-5708992.82" convBoundary="0.00,0.00,2714.82,3052.28" origBoundary="-0.167959,51.497228,-0.129685,51.524819" projParameter="+proj=utm +zone=30 +ellps=WGS84 +datum=WGS84 +units=m +no_defs"/>

    <type id="highway.footway" priority="1" numLanes="1" speed="2.78" allow="pedestrian" oneway="1" width="2.00"/>
    <type id="highway.living_street" priority="2" numLanes="1" speed="2.78" disallow="tram rail_urban rail rail_electric rail_fast ship container cable_car subway aircraft wheelchair scooter drone" oneway="0"/>
    <type id="highway.pedestrian" priority="1" numLanes="1" speed="2.78" allow="pedestrian" oneway="1" width="2.00"/>
    <type id="highway.primary" priority="12" numLanes="2" speed="27.78" disallow="tram rail_urban rail rail_electric rail_fast ship container cable_car subway aircraft wheelchair scooter drone" oneway="0"/>
    <type id="highway.residential" priority="3" numLanes="1" speed="13.89" disallow="tram rail_urban rail rail_electric rail_fast ship container cable_car subway aircraft wheelchair scooter drone" oneway="0"/>
    <type id="highway.secondary" priority="11" numLanes="1" speed="27.78" disallow="tram rail_urban rail rail_electric rail_fast ship container cable_car subway aircraft wheelchair scooter drone" oneway="0"/>
    <type id="highway.service" priority="1" numLanes="1" speed="5.56" allow="pedestrian delivery bicycle" oneway="0"/>
    <type id="highway.steps" priority="1" numLanes="1" speed="1.39" allow="pedestrian" oneway="1" width="2.00"/>
    <type id="highway.tertiary" priority="10" numLanes="1" speed="22.22" disallow="tram rail_urban rail rail_electric rail_fast ship container cable_car subway aircraft wheelchair scooter drone" oneway="0"/>
    <type id="highway.unclassified" priority="4" numLanes="1" speed="13.89" disallow="tram rail_urban rail rail_electric rail_fast ship container cable_car subway aircraft wheelchair scooter drone" oneway="0"/>
    <type id="railway.subway" priority="18" numLanes="1" speed="27.78" allow="subway" oneway="1"/>

    <edge id=":107812_0" function="internal">
        <lane id=":107812_0_0" index="0" disallow="tram rail_urban rail rail_electric rail_fast ship container cable_car subway aircraft wheelchair scooter drone" speed="5.97" length="7.09" shape="2379.97,1590.97 2378.80,1593.18 2378.28,1594.99 2378.43,1596.40 2379.24,1597.41"/>
    </edge>
    <edge id=":107812_1" function="internal">
        <lane id=":107812_1_0" index="0" disallow="tram rail_urban rail rail_electric rail_fast ship container cable_car subway aircraft wheelchair scooter drone" speed="8.94" length="14.17" shape="2379.97,1590.97 2378.02,1594.02 2376.07,1596.89 2374.05,1599.70 2371.84,1602.57"/>
    </edge>
    <edge id=":107812_2" function="internal">
        <lane id=":107812_2_0" index="0" disallow="tram rail_urban rail rail_electric rail_fast ship container cable_car subway aircraft wheelchair scooter drone" speed="6.33" length="9.57" shape="2379.97,1590.97 2377.78,1594.16 2375.93,1596.19 2374.42,1597.06 2373.25,1596.76"/>
    </edge>
    <edge id=":107812_3" function="internal">
        <lane id=":107812_3_0" index="0" disallow="tram rail_urban rail rail_electric rail_fast ship container cable_car subway aircraft wheelchair scooter drone" speed="8.94" length="5.60" shape="2375.37,1594.36 2376.47,1595.32 2377.24,1595.96 2378.05,1596.56 2379.24,1597.41"/>
        <lane id=":107812_3_1" index="1" disallow="tram rail_urban rail rail_electric rail_fast ship container cable_car subway aircraft wheelchair scooter drone" speed="8.94" length="5.60" shape="2375.37,1594.36 2376.29,1595.84 2376.31,1597.28 2376.36,1598.68 2377.39,1600.02"/>
    </edge>
    <edge id=":107812_5" function="internal">
        <lane id=":107812_5_0" index="0" disallow="tram rail_urban rail rail_electric rail_fast ship container cable_car subway aircraft wheelchair scooter drone" speed="6.76" length="9.40" shape="2375.37,1594.36 2375.80,1595.45 2375.36,1597.18 2374.04,1599.55 2371.84,1602.57"/>
    </edge>
    <edge id=":107812_6" function="internal">
        <lane id=":107812_6_0" index="0" disallow="tram rail_urban rail rail_electric rail_fast ship container cable_car subway aircraft wheelchair scooter drone" speed="3.65" length="4.67" shape="2375.37,1594.36 2375.74,1595.75 2375.51,1596.62 2374.68,1596.95 2373.25,1596.76"/>
    </edge>
    <edge id=":107813_0" function="internal">
        <lane id=":107813_0_0" index="0" allow="bus bicycle" speed="8.94" length="15.19" shape="2411.44,1524.45 2408.26,1522.75 2404.77,1521.57 2401.38,1519.67 2398.51,1515.80"/>
        <lane id=":107813_0_1" index="1" disallow="tram rail_urban rail rail_electric rail_fast ship container cable_car subway aircraft wheelchair scooter drone" speed="8.94" length="15.19" shape="2411.44,1524.45 2408.67,1522.45 2406.11,1520.66 2403.70,1518.26 2401.41,1514.44"/>
    </edge>
    <edge id=":107813_2" function="internal">
        <lane id=":107813_2_0" index="0" disallow="tram rail_urban rail rail_electric rail_fast ship container cable_car subway aircraft wheelchair scooter drone" speed="7.02" length="9.76" shape="2411.44,1524.45 2409.95,1522.69 2409.40,1520.64 2409.79,1518.29 2411.13,1515.66"/>
    </edge>
    <edge id=":107813_3" function="internal">
        <lane id=":107813_3_0" index="0" disallow="tram rail_urban rail rail_electric rail_fast ship container cable_car subway aircraft wheelchair scooter drone" speed="8.94" length="18.11" shape="2407.20,1511.72 2408.25,1517.22 2407.09,1521.87 2405.68,1525.84 2405.96,1529.32"/>
    </edge>
    <edge id=":107813_4" function="internal">
        <lane id=":107813_4_0" index="0" disallow="tram rail_urban rail rail_electric rail_fast ship container cable_car subway aircraft wheelchair scooter drone" speed="8.94" length="15.86" shape="2401.12,1527.96 2402.82,1524.94 2404.20,1521.86 2405.87,1518.32 2408.44,1513.92"/>
        <lane id=":107813_4_1" index="1" disallow="tram rail_urban rail rail_electric rail_fast ship container cable_car subway aircraft wheelchair scooter drone" speed="8.94" length="15.86" shape="2401.12,1527.96 2403.24,1525.21 2405.54,1522.74 2408.13,1519.80 2411.13,1515.66"/>
    </edge>
    <edge id=":107820_0" function="internal">
        <lane id=":107820_0_0" index="0" disallow="tram rail_urban rail rail_electric rail_fast ship container cable_car subway aircraft wheelchair scooter drone" speed="6.27" length="4.84" shape="2293.85,1518.42 2294.64,1517.78 2295.65,1517.39 2296.90,1517.26 2298.37,1517.39"/>
    </edge>
    <edge id=":108055_0" function="internal">
        <lane id=":108055_0_0" index="0" disallow="tram rail_urban rail rail_electric rail_fast ship container cable_car subway aircraft wheelchair scooter drone" speed="6.15" length="7.30" shape="1929.29,1775.44 1927.91,1775.08 1926.47,1775.48 1924.96,1776.63 1923.39,1778.55"/>
    </edge>
    <edge id=":108055_1" function="internal">
        <lane id=":108055_1_0" index="0" disallow="tram rail_urban rail rail_electric rail_fast ship container cable_car subway aircraft wheelchair scooter drone" speed="8.94" length="13.20" shape="1929.29,1775.44 1926.30,1773.68 1923.71,1771.94 1921.19,1770.06 1918.45,1767.93"/>
    </edge>
    <edge id=":108055_2" function="internal">
        <lane id=":108055_2_0" index="0" disallow="tram rail_urban rail rail_electric rail_fast ship container cable_car subway aircraft wheelchair scooter drone" speed="3.65" length="4.67" shape="1929.29,1775.44 1928.62,1774.16 1928.66,1773.27 1929.39,1772.76 1930.83,1772.64"/>
    </edge>
    <edge id=":108055_3" function="internal">
        <lane id=":108055_3_0" index="0" disallow="tram rail_urban rail rail_electric rail_fast ship container cable_car subway aircraft wheelchair scooter drone" speed="7.27" length="8.86" shape="1930.11,1764.85 1928.95,1767.45 1928.68,1769.61 1929.31,1771.34 1930.83,1772.64"/>
    </edge>
    <edge id=":108055_4" function="internal">
        <lane id=":108055_4_0" index="0" disallow="tram rail_urban rail rail_electric rail_fast ship container cable_car subway aircraft wheelchair scooter drone" speed="8.94" length="15.12" shape="1930.11,1764.85 1928.21,1767.67 1926.13,1770.09 1923.70,1772.86 1920.77,1776.72"/>
    </edge>
    <edge id=":108055_5" function="internal">
        <lane id=":108055_5_0" index="0" disallow="tram rail_urban rail rail_electric rail_fast ship container cable_car subway aircraft wheelchair scooter drone" speed="8.37" length="14.23" shape="1930.11,1764.85 1927.58,1768.20 1924.79,1769.83 1921.75,1769.74 1918.45,1767.93"/>
    </edge>
    <edge id=":108055_6" function="internal">
        <lane id=":108055_6_0" index="0" disallow="tram rail_urban rail rail_electric rail_fast ship container cable_car subway aircraft wheelchair scooter drone" speed="8.94" length="12.69" shape="1920.42,1765.41 1923.09,1767.50 1925.46,1769.27 1927.91,1770.92 1930.83,1772.64"/>
    </edge>
    <edge id=":108055_7" function="internal">
        <lane id=":108055_7_0" index="0" disallow="tram rail_urban rail rail_electric rail_fast ship container cable_car subway aircraft wheelchair scooter drone" speed="7.75" length="12.71" shape="1920.42,1765.41 1922.44,1767.67 1923.17,1770.32 1922.62,1773.33 1920.77,1776.72"/>
    </edge>
    <edge id=":108055_8" function="internal">
        <lane id=":108055_8_0" index="0" disallow="tram rail_urban rail rail_electric rail_fast ship container cable_car subway aircraft wheelchair scooter drone" speed="3.65" length="4.67" shape="1920.42,1765.41 1920.87,1766.78 1920.70,1767.65 1919.89,1768.04 1918.45,1767.93"/>
    </edge>
    <edge id=":108060_0" function="internal">
        <lane id=":108060_0_0" index="0" disallow="tram rail_urban rail rail_electric rail_fast ship container cable_car subway aircraft wheelchair scooter drone" speed="6.17" length="5.56" shape="2207.34,1526.50 2207.29,1527.38 2207.71,1528.44 2208.61,1529.69 2210.00,1531.13"/>
    </edge>
    <edge id=":108060_1" function="internal">
        <lane id=":108060_1_0" index="0" disallow="tram rail_urban rail rail_electric rail_fast ship container cable_car subway aircraft wheelchair scooter drone" speed="8.94" length="4.14" shape="2207.34,1526.50 2206.89,1527.64 2206.50,1528.38 2206.02,1529.08 2205.29,1530.07"/>
    </edge>
    <edge id=":108060_2" function="internal">
        <lane id=":108060_2_0" index="0" disallow="tram rail_urban rail rail_electric rail_fast ship container cable_car subway aircraft wheelchair scooter drone" speed="8.94" length="9.50" shape="2203.06,1524.64 2210.00,1531.13"/>
    </edge>
    <edge id=":108060_3" function="internal">
        <lane id=":108060_3_0" index="0" disallow="tram rail_urban rail rail_electric rail_fast ship container cable_car subway aircraft wheelchair scooter drone" speed="5.80" length="6.37" shape="2203.06,1524.64 2204.58,1526.27 2205.46,1527.71 2205.70,1528.98 2205.29,1530.07"/>
    </edge>
    <edge id=":108070_0" function="internal">
        <lane id=":108070_0_0" index="0" disallow="tram rail_urban rail rail_electric rail_fast ship container cable_car subway aircraft wheelchair scooter drone" speed="8.94" length="11.21" shape="2108.63,1669.40 2099.64,1662.70"/>
    </edge>
    <edge id=":108070_1" function="internal">
        <lane id=":108070_1_0" index="0" disallow="tram rail_urban rail rail_electric rail_fast ship container cable_car subway aircraft wheelchair scooter drone" speed="5.85" length="1.41" shape="2105.99,1663.54 2104.89,1664.44"/>
    </edge>
    <edge id=":108070_2" function="internal">
        <lane id=":108070_2_0" index="0" disallow="tram rail_urban rail rail_electric rail_fast ship container cable_car subway aircraft wheelchair scooter drone" speed="5.85" length="5.74" shape="2104.89,1664.44 2103.47,1664.60 2101.72,1664.01 2099.64,1662.70"/>
    </edge>
    <edge id=":108072_0" function="internal">
        <lane id=":108072_0_0" index="0" disallow="tram rail_urban rail rail_electric rail_fast ship container cable_car subway aircraft wheelchair scooter drone" speed="5.91" length="7.66" shape="2141.57,1773.18 2139.96,1772.57 2138.43,1772.85 2136.96,1774.03 2135.55,1776.09"/>
    </edge>
    <edge id=":108072_1" function="internal">
        <lane id=":108072_1_0" index="0" disallow="tram rail_urban rail rail_electric rail_fast ship container cable_car subway aircraft wheelchair scooter drone" speed="8.94" length="8.97" shape="2141.57,1773.18 2139.32,1771.75 2137.79,1770.76 2136.32,1769.69 2134.23,1768.04"/>
    </edge>
    <edge id=":108072_2" function="internal">
        <lane id=":108072_2_0" index="0" disallow="tram rail_urban rail rail_electric rail_fast ship container cable_car subway aircraft wheelchair scooter drone" speed="7.25" length="2.57" shape="2141.57,1773.18 2140.32,1771.30 2140.29,1770.99"/>
    </edge>
    <edge id=":108072_3" function="internal">
        <lane id=":108072_3_0" index="0" disallow="tram rail_urban rail rail_electric rail_fast ship container cable_car subway aircraft wheelchair scooter drone" speed="3.65" length="1.44" shape="2141.57,1773.18 2140.99,1771.86"/>
    </edge>
    <edge id=":108072_12" function="internal">
        <lane id=":108072_12_0" index="0" disallow="tram rail_urban rail rail_electric rail_fast ship container cable_car subway aircraft wheelchair scooter drone" speed="7.25" length="8.77" shape="2140.29,1770.99 2140.02,1768.40 2140.50,1765.23 2141.64,1762.50"/>
    </edge>
    <edge id=":108072_13" function="internal">
        <lane id=":108072_13_0" index="0" disallow="tram rail_urban rail rail_electric rail_fast ship container cable_car subway aircraft wheelchair scooter drone" speed="3.65" length="3.23" shape="2140.99,1771.86 2141.09,1770.97 2141.86,1770.51 2143.30,1770.49"/>
    </edge>
    <edge id=":108072_4" function="internal">
        <lane id=":108072_4_0" index="0" disallow="tram rail_urban rail rail_electric rail_fast ship container cable_car subway aircraft wheelchair scooter drone" speed="5.60" length="7.01" shape="2136.25,1765.55 2137.45,1766.06 2138.76,1765.73 2140.15,1764.54 2141.64,1762.50"/>
    </edge>
    <edge id=":108072_5" function="internal">
        <lane id=":108072_5_0" index="0" disallow="tram rail_urban rail rail_electric rail_fast ship container cable_car subway aircraft wheelchair scooter drone" speed="8.94" length="8.62" shape="2136.25,1765.55 2138.25,1767.14 2139.67,1768.16 2141.14,1769.12 2143.30,1770.49"/>
    </edge>
    <edge id=":108072_6" function="internal">
        <lane id=":108072_6_0" index="0" disallow="tram rail_urban rail rail_electric rail_fast ship container cable_car subway aircraft wheelchair scooter drone" speed="7.62" length="2.24" shape="2136.25,1765.55 2137.12,1767.36 2137.12,1767.60"/>
    </edge>
    <edge id=":108072_7" function="internal">
        <lane id=":108072_7_0" index="0" disallow="tram rail_urban rail rail_electric rail_fast ship container cable_car subway aircraft wheelchair scooter drone" speed="3.65" length="1.44" shape="2136.25,1765.55 2136.68,1766.93"/>
    </edge>
    <edge id=":108072_14" function="internal">
        <lane id=":108072_14_0" index="0" disallow="tram rail_urban rail rail_electric rail_fast ship container cable_car subway aircraft wheelchair scooter drone" speed="7.62" length="8.75" shape="2137.12,1767.60 2137.19,1770.19 2136.62,1773.34 2135.55,1776.09"/>
    </edge>
    <edge id=":108072_15" function="internal">
        <lane id=":108072_15_0" index="0" disallow="tram rail_urban rail rail_electric rail_fast ship container cable_car subway aircraft wheelchair scooter drone" speed="3.65" length="3.23" shape="2136.68,1766.93 2136.49,1767.80 2135.67,1768.17 2134.23,1768.04"/>
    </edge>
    <edge id=":108072_8" function="internal">
        <lane id=":108072_8_0" index="0" disallow="tram rail_urban rail rail_electric rail_fast ship container cable_car subway aircraft wheelchair scooter drone" speed="6.22" length="7.02" shape="2132.74,1774.56 2133.93,1772.14 2134.58,1770.25 2134.68,1768.88 2134.23,1768.04"/>
    </edge>
    <edge id=":108072_9" function="internal">
        <lane id=":108072_9_0" index="0" disallow="tram rail_urban rail rail_electric rail_fast ship container cable_car subway aircraft wheelchair scooter drone" speed="8.94" length="15.00" shape="2132.74,1774.56 2134.77,1771.42 2137.10,1768.47 2139.47,1765.56 2141.64,1762.50"/>
    </edge>
    <edge id=":108072_10" function="internal">
        <lane id=":108072_10_0" index="0" disallow="tram rail_urban rail rail_electric rail_fast ship container cable_car subway aircraft wheelchair scooter drone" speed="7.51" length="13.07" shape="2132.74,1774.56 2135.05,1771.29 2137.58,1769.52 2140.33,1769.25 2143.30,1770.49"/>
    </edge>
    <edge id=":108072_11" function="internal">
        <lane id=":108072_11_0" index="0" disallow="tram rail_urban rail rail_electric rail_fast ship container cable_car subway aircraft wheelchair scooter drone" speed="3.65" length="4.67" shape="2132.74,1774.56 2134.02,1773.89 2134.91,1773.92 2135.42,1774.66 2135.55,1776.09"/>
    </edge>
    <edge id=":108073_0" function="internal">
        <lane id=":108073_0_0" index="0" disallow="tram rail_urban rail rail_electric rail_fast ship container cable_car subway aircraft wheelchair scooter drone" speed="6.74" length="10.93" shape="2238.27,1822.44 2235.73,1821.69 2233.56,1822.25 2231.76,1824.10 2230.34,1827.25"/>
    </edge>
    <edge id=":108073_1" function="internal">
        <lane id=":108073_1_0" index="0" disallow="tram rail_urban rail rail_electric rail_fast ship container cable_car subway aircraft wheelchair scooter drone" speed="8.94" length="9.71" shape="2238.27,1822.44 2235.62,1821.82 2233.56,1822.39 2231.51,1822.96 2228.85,1822.35"/>
    </edge>
    <edge id=":108073_2" function="internal">
        <lane id=":108073_2_0" index="0" disallow="tram rail_urban rail rail_electric rail_fast ship container cable_car subway aircraft wheelchair scooter drone" speed="6.60" length="8.23" shape="2230.29,1819.49 2231.12,1820.40 2231.41,1821.99 2231.14,1824.28 2230.34,1827.25"/>
    </edge>
    <edge id=":108073_3" function="internal">
        <lane id=":108073_3_0" index="0" disallow="tram rail_urban rail rail_electric rail_fast ship container cable_car subway aircraft wheelchair scooter drone" speed="3.65" length="4.67" shape="2230.29,1819.49 2231.00,1820.75 2231.00,1821.64 2230.28,1822.18 2228.85,1822.35"/>
    </edge>
    <edge id=":10850040118_0" function="internal">
        <lane id=":10850040118_0_0" index="0" disallow="tram rail_urban rail rail_electric rail_fast ship container cable_car subway aircraft wheelchair scooter drone" speed="8.94" length="2.91" shape="2406.06,1529.50 2407.45,1532.06"/>
    </edge>
    <edge id=":10850040119_0" function="internal">
        <lane id=":10850040119_0_0" index="0" disallow="tram rail_urban rail rail_electric rail_fast ship container cable_car subway aircraft wheelchair scooter drone" speed="8.91" length="5.09" shape="2412.03,1529.65 2411.59,1524.58"/>
    </edge>
    <edge id=":11027839792_0" function="internal">
        <lane id=":11027839792_0_0" index="0" disallow="tram rail_urban rail rail_electric rail_fast ship container cable_car subway aircraft wheelchair scooter drone" speed="8.94" length="0.30" shape="2261.36,1556.85 2261.55,1556.62"/>
    </edge>
    <edge id=":11027839793_0" function="internal">
        <lane id=":11027839793_0_0" index="0" disallow="tram rail_urban rail rail_electric rail_fast ship container cable_car subway aircraft wheelchair scooter drone" speed="8.94" length="0.30" shape="2265.39,1552.10 2265.58,1551.87"/>
    </edge>
    <edge id=":1119774074_0" function="internal">
        <lane id=":1119774074_0_0" index="0" disallow="tram rail_urban rail rail_electric rail_fast ship container cable_car subway aircraft wheelchair scooter drone" speed="8.94" length="5.74" shape="2394.48,1531.75 2396.09,1531.24 2397.16,1530.75 2398.11,1530.05 2399.37,1528.92"/>
    </edge>
    <edge id=":11307995858_0" function="internal">
        <lane id=":11307995858_0_0" index="0" disallow="tram rail_urban rail rail_electric rail_fast ship container cable_car subway aircraft wheelchair scooter drone" speed="8.94" length="2.92" shape="1880.51,1659.60 1877.98,1658.15"/>
    </edge>
    <edge id=":11307995858_1" function="internal">
        <lane id=":11307995858_1_0" index="0" disallow="tram rail_urban rail rail_electric rail_fast ship container cable_car subway aircraft wheelchair scooter drone" speed="8.94" length="2.92" shape="1879.56,1655.37 1882.09,1656.81"/>
    </edge>
    <edge id=":11307995859_0" function="internal">
        <lane id=":11307995859_0_0" index="0" allow="pedestrian delivery bicycle" speed="5.56" length="3.68" shape="1904.50,1675.60 1902.45,1678.66"/>
    </edge>
    <edge id=":11307995859_1" function="internal">
        <lane id=":11307995859_1_0" index="0" allow="pedestrian delivery bicycle" speed="3.65" length="1.44" shape="1904.50,1675.60 1903.17,1676.15"/>
    </edge>
    <edge id=":11307995859_4" function="internal">
        <lane id=":11307995859_4_0" index="0" allow="pedestrian delivery bicycle" speed="3.65" length="3.23" shape="1903.17,1676.15 1902.28,1676.04 1901.84,1675.26 1901.84,1673.82"/>
    </edge>
    <edge id=":11307995859_2" function="internal">
        <lane id=":11307995859_2_0" index="0" allow="pedestrian delivery bicycle" speed="5.56" length="3.69" shape="1899.79,1676.88 1901.84,1673.82"/>
    </edge>
    <edge id=":11307995859_3" function="internal">
        <lane id=":11307995859_3_0" index="0" allow="pedestrian delivery bicycle" speed="3.65" length="1.44" shape="1899.79,1676.88 1901.13,1676.33"/>
    </edge>
    <edge id=":11307995859_5" function="internal">
        <lane id=":11307995859_5_0" index="0" allow="pedestrian delivery bicycle" speed="3.65" length="3.23" shape="1901.13,1676.33 1902.01,1676.44 1902.46,1677.22 1902.45,1678.66"/>
    </edge>
    <edge id=":11307995868_0" function="internal">
        <lane id=":11307995868_0_0" index="0" disallow="tram rail_urban rail rail_electric rail_fast ship container cable_car subway aircraft wheelchair scooter drone" speed="8.94" length="3.38" shape="1860.13,1671.16 1857.66,1673.47"/>
    </edge>
    <edge id=":11307995868_1" function="internal">
        <lane id=":11307995868_1_0" index="0" disallow="tram rail_urban rail rail_electric rail_fast ship container cable_car subway aircraft wheelchair scooter drone" speed="8.94" length="3.38" shape="1855.48,1671.13 1857.94,1668.82"/>
    </edge>
    <edge id=":11308044774_0" function="internal">
        <lane id=":11308044774_0_0" index="0" disallow="tram rail_urban rail rail_electric rail_fast ship container cable_car subway aircraft wheelchair scooter drone" speed="8.94" length="4.05" shape="1847.61,1680.09 1844.46,1682.63"/>
    </edge>
    <edge id=":11308222714_0" function="internal">
        <lane id=":11308222714_0_0" index="0" disallow="tram rail_urban rail rail_electric rail_fast ship container cable_car subway aircraft wheelchair scooter drone" speed="8.94" length="1.49" shape="1895.91,1539.74 1896.74,1538.49"/>
    </edge>
    <edge id=":11308287176_0" function="internal">
        <lane id=":11308287176_0_0" index="0" disallow="tram rail_urban rail rail_electric rail_fast ship container cable_car subway aircraft wheelchair scooter drone" speed="8.94" length="3.02" shape="1913.65,1601.81 1916.16,1603.48"/>
    </edge>
    <edge id=":11308287193_0" function="internal">
        <lane id=":11308287193_0_0" index="0" disallow="tram rail_urban rail rail_electric rail_fast ship container cable_car subway aircraft wheelchair scooter drone" speed="8.94" length="2.05" shape="1895.81,1611.14 1894.14,1609.96"/>
    </edge>
    <edge id=":11308287193_1" function="internal">
        <lane id=":11308287193_1_0" index="0" disallow="tram rail_urban rail rail_electric rail_fast ship container cable_car subway aircraft wheelchair scooter drone" speed="8.94" length="2.05" shape="1895.99,1607.35 1897.66,1608.53"/>
    </edge>
    <edge id=":11308287196_0" function="internal">
        <lane id=":11308287196_0_0" index="0" disallow="tram rail_urban rail rail_electric rail_fast ship container cable_car subway aircraft wheelchair scooter drone" speed="8.94" length="1.72" shape="1925.63,1566.22 1924.20,1565.26"/>
    </edge>
    <edge id=":11308287196_1" function="internal">
        <lane id=":11308287196_1_0" index="0" disallow="tram rail_urban rail rail_electric rail_fast ship container cable_car subway aircraft wheelchair scooter drone" speed="8.94" length="1.72" shape="1925.99,1562.60 1927.41,1563.56"/>
    </edge>
    <edge id=":11308287197_0" function="internal">
        <lane id=":11308287197_0_0" index="0" disallow="tram rail_urban rail rail_electric rail_fast ship container cable_car subway aircraft wheelchair scooter drone" speed="8.94" length="3.27" shape="1888.78,1550.15 1890.64,1547.46"/>
    </edge>
    <edge id=":11308287198_0" function="internal">
        <lane id=":11308287198_0_0" index="0" disallow="tram rail_urban rail rail_electric rail_fast ship container cable_car subway aircraft wheelchair scooter drone" speed="8.94" length="3.53" shape="1899.13,1548.42 1896.20,1546.45"/>
    </edge>
    <edge id=":11308287198_1" function="internal">
        <lane id=":11308287198_1_0" index="0" disallow="tram rail_urban rail rail_electric rail_fast ship container cable_car subway aircraft wheelchair scooter drone" speed="8.94" length="3.53" shape="1897.98,1543.79 1900.92,1545.76"/>
    </edge>
    <edge id=":11309776202_0" function="internal">
        <lane id=":11309776202_0_0" index="0" disallow="tram rail_urban rail rail_electric rail_fast ship container cable_car subway aircraft wheelchair scooter drone" speed="8.94" length="0.30" shape="2446.71,1455.59 2446.98,1455.45"/>
        <lane id=":11309776202_0_1" index="1" disallow="tram rail_urban rail rail_electric rail_fast ship container cable_car subway aircraft wheelchair scooter drone" speed="8.94" length="0.30" shape="2448.19,1458.43 2448.46,1458.29"/>
    </edge>
    <edge id=":11309928061_0" function="internal">
        <lane id=":11309928061_0_0" index="0" disallow="tram rail_urban rail rail_electric rail_fast ship container cable_car subway aircraft wheelchair scooter drone" speed="8.94" length="1.46" shape="2405.63,1541.60 2405.33,1541.91 2405.12,1542.13 2404.93,1542.36 2404.67,1542.70"/>
    </edge>
    <edge id=":11309928065_0" function="internal">
        <lane id=":11309928065_0_0" index="0" disallow="tram rail_urban rail rail_electric rail_fast ship container cable_car subway aircraft wheelchair scooter drone" speed="8.94" length="0.30" shape="2468.62,1623.49 2468.40,1623.28"/>
        <lane id=":11309928065_0_1" index="1" disallow="tram rail_urban rail rail_electric rail_fast ship container cable_car subway aircraft wheelchair scooter drone" speed="8.94" length="0.30" shape="2470.82,1621.17 2470.61,1620.96"/>
    </edge>
    <edge id=":11309928065_2" function="internal">
        <lane id=":11309928065_2_0" index="0" disallow="tram rail_urban rail rail_electric rail_fast ship container cable_car subway aircraft wheelchair scooter drone" speed="8.94" length="0.30" shape="2475.02,1616.33 2475.24,1616.54"/>
        <lane id=":11309928065_2_1" index="1" disallow="tram rail_urban rail rail_electric rail_fast ship container cable_car subway aircraft wheelchair scooter drone" speed="8.94" length="0.30" shape="2472.81,1618.65 2473.03,1618.85"/>
    </edge>
    <edge id=":11309928066_0" function="internal">
        <lane id=":11309928066_0_0" index="0" disallow="tram rail_urban rail rail_electric rail_fast ship container cable_car subway aircraft wheelchair scooter drone" speed="8.94" length="0.30" shape="2451.01,1604.20 2450.82,1603.97"/>
        <lane id=":11309928066_0_1" index="1" disallow="tram rail_urban rail rail_electric rail_fast ship container cable_car subway aircraft wheelchair scooter drone" speed="8.94" length="0.30" shape="2453.42,1602.09 2453.22,1601.86"/>
    </edge>
    <edge id=":11309928066_2" function="internal">
        <lane id=":11309928066_2_0" index="0" disallow="tram rail_urban rail rail_electric rail_fast ship container cable_car subway aircraft wheelchair scooter drone" speed="8.94" length="0.30" shape="2458.04,1597.65 2458.24,1597.87"/>
        <lane id=":11309928066_2_1" index="1" disallow="tram rail_urban rail rail_electric rail_fast ship container cable_car subway aircraft wheelchair scooter drone" speed="8.94" length="0.30" shape="2455.63,1599.76 2455.83,1599.98"/>
    </edge>
    <edge id=":11309929575_0" function="internal">
        <lane id=":11309929575_0_0" index="0" disallow="tram rail_urban rail rail_electric rail_fast ship container cable_car subway aircraft wheelchair scooter drone" speed="8.94" length="0.30" shape="2493.95,1645.94 2493.70,1645.77"/>
        <lane id=":11309929575_0_1" index="1" disallow="tram rail_urban rail rail_electric rail_fast ship container cable_car subway aircraft wheelchair scooter drone" speed="8.94" length="0.30" shape="2495.76,1643.30 2495.52,1643.13"/>
    </edge>
    <edge id=":11309929575_2" function="internal">