<?xml version="1.0" encoding="UTF-8"?>

<!-- generated on 2024-10-21 12:05:38.986522 by randomTrips.py v1_20_0+0002-343658e7c64
<configuration>
    <net-file value="map.net.xml"/>
    <route-file value="map.rou.xml"/>
    <end value="100.0"/>
</configuration>
-->

<!-- generated on 2024-10-21 12:05:38 by Eclipse SUMO duarouter Version 1.20.0
<configuration xmlns:xsi="http://www.w3.org/2001/XMLSchema-instance" xsi:noNamespaceSchemaLocation="http://sumo.dlr.de/xsd/duarouterConfiguration.xsd">

    <input>
        <net-file value="map.net.xml"/>
        <route-files value="trips.trips.xml"/>
    </input>

    <output>
        <output-file value="map.rou.xml"/>
        <alternatives-output value="NUL"/>
    </output>

    <time>
        <begin value="0"/>
        <end value="100.0"/>
    </time>

    <report>
        <no-warnings value="true"/>
        <ignore-errors value="true"/>
        <no-step-log value="true"/>
    </report>

</configuration>
-->

<routes xmlns:xsi="http://www.w3.org/2001/XMLSchema-instance" xsi:noNamespaceSchemaLocation="http://sumo.dlr.de/xsd/routes_file.xsd">
    <vehicle id="0" depart="0.00">
        <route edges="4254009#1 4253812#3 4254010#0 4254010#1 4254010#2 4254010#3 4254010#4 4254010#5 240505256#0 240505256#1 240505256#2 240505256#3 423007010#0 423007010#1 423007010#2 423007010#3 423007010#4 423007010#5 262200662#0 262200662#1 262200662#2 262200662#3 436938220#2 436938220#3 1018951418 1018951421#0 1018951421#1 1024601863#0 1024601863#1 1018951416 1018951413 1018951412 1018951410 936882273#0 936882273#1 -22760594#3"/>
    </vehicle>
    <vehicle id="1" depart="1.00">
        <route edges="1018951425#0 1018951425#1 1018951424 1018951419 436938220#0 436938220#1 436938220#2 436938220#3 1018951418 1018951421#0 1018951421#1 1024601863#0 1024601863#1 1018951416 1018951413 1018951412 1018951410 936882273#0 936882273#1 468720689 436938218#0 436938218#1 1018951409"/>
    </vehicle>
    <vehicle id="2" depart="2.00">
        <route edges="4259311#1 4259311#2 -4259249#1 -4259249#0 4259126#0 4259126#1"/>
    </vehicle>
    <vehicle id="3" depart="3.00">
        <route edges="542471105#0 542471107#0 542471107#1 542471107#2 542471107#3 542471107#4 262200663#1 262200663#2 262200663#3 262200663#4 262200663#5 4253462#0 4253462#1 4253462#2 -4376564#5 -4376564#4 4393240#0 4393240#1 4393240#2 4393240#3 4393240#4 262200665#1 262200665#2 246902443 -325008373#1 -325008373#0 -4254044 240505256#0 240505256#1 240505256#2 240505256#3 423007010#0 423007010#1 423007010#2 423007010#3 423007010#4 423007010#5 262200662#0 262200662#1 262200662#2 262200662#3 436938220#2 436938220#3 1018951418 1018951421#0 1018951421#1 1024601863#0 1024601863#1 1018951416 1018951413 1018951412 1018951410 936882273#0 936882273#1 -22760594#3 -22760594#2 -22760594#1 -22760594#0 4259249#0 4259249#1 4259249#2 -4259262#1 -4259262#0"/>
    </vehicle>
    <vehicle id="4" depart="4.00">
        <route edges="262200664#1 -262200664#1 -262200664#0"/>
    </vehicle>
    <vehicle id="7" depart="7.00">
        <route edges="4254010#2 4254010#3 4254010#4 4254010#5 240505256#0 240505256#1 4254009#0 4254009#1 4253812#3 262200663#0 262200663#1 262200663#2 262200663#3 262200663#4 262200663#5 4253462#0 4253462#1"/>
    </vehicle>
    <vehicle id="10" depart="10.00">
        <route edges="4370945 -4370945 -4259249#3 -4259262#1 -4259262#0 4259262#0"/>
    </vehicle>
    <vehicle id="12" depart="12.00">
        <route edges="673025496#0 673025496#1 673025496#2 673569250#0 673569250#1 4253785#0 4253785#1 4253812#1 4253812#2 4253812#3 4254010#0 4254010#1 4254010#2 4254010#3 4254010#4 4254010#5 4254044 325008373#0 325008373#1 40976543#0 40976543#1 40976543#2 136456829#0 136456829#1"/>
    </vehicle>
    <vehicle id="13" depart="13.00">
        <route edges="-4259354#1 -4259354#0 4259354#0 4259354#1 4259354#2 40976543#1 40976543#2 136456829#0 136456829#1 136456829#2 55873935#0 55873935#1 423007010#0 423007010#1 423007010#2 423007010#3 423007010#4 423007010#5 262200662#0 262200662#1 262200662#2 262200662#3 436938220#2 436938220#3 1018951418 1018951421#0 1018951421#1 1024601863#0 1024601863#1 1018951416 1018951413 1018951412 1018951410 936882273#0 936882273#1 -22760594#3 -22760594#2 -22760594#1 -22760594#0 4259249#0 4259249#1 -4259311#2 -4259311#1"/>
    </vehicle>
    <vehicle id="14" depart="14.00">
        <route edges="4376564#4 4376564#5 -4376564#5 -4376564#4 4393240#0 4393240#1 4393240#2 4393240#3 4393240#4 262200665#1 262200665#2 246902443 -325008373#1 -325008373#0 -4254044 240505256#0 240505256#1 240505256#2 240505256#3 423007010#0 423007010#1 4253792#0 4253792#1 673569250#0 673569250#1 4253785#0 4253785#1 4253812#1 4253812#2"/>
    </vehicle>
    <vehicle id="15" depart="15.00">
        <route edges="4370945 -4370945 4259271#0 4259271#1 4259271#2 4259271#3"/>
    </vehicle>
    <vehicle id="18" depart="18.00">
        <route edges="4370989#1 542471107#2 542471107#3 542471107#4 262200663#1 262200663#2 262200663#3 262200663#4 262200663#5 4253462#0 4253462#1 4253462#2 -4376564#5 -4376564#4 4393240#0 4393240#1 4393240#2 4393240#3 4393240#4 262200665#1 262200665#2 246902443 -325008373#1 -325008373#0 -4254044 240505256#0 240505256#1 240505256#2 240505256#3 423007010#0 423007010#1 4253792#0 4253792#1 673569250#0 673569250#1 4253785#0 4253785#1 4253812#1 4253875#0"/>
    </vehicle>
    <vehicle id="19" depart="19.00">
        <route edges="4393240#0 4393240#1 4393240#2 4393240#3 4393240#4 262200665#1 262200665#2 246902443 -325008373#1 -325008373#0 -4254044 240505256#0 240505256#1 240505256#2 240505256#3 423007010#0 423007010#1 4253792#0 4253792#1 673569250#0 673569250#1 4253794#0 4253794#1 673569249#0 673569249#1 4253790#0 4253790#1"/>
    </vehicle>
    <vehicle id="21" depart="21.00">
        <route edges="1018951415#0 1018951415#1 1018951422#0 1018951422#1 1018951417 38748498#0 38748498#1 38748498#2 38748498#3 1018951420 1018951423"/>
    </vehicle>
    <vehicle id="22" depart="22.00">
        <route edges="-4259262#1 -4259262#0 4259262#0 4259262#1 -4259249#2 -4259249#1 -4259249#0 22760594#0 22760594#1 22760594#2 22760594#3 468720689 436938218#0 436938218#1 1018951409 1018951411"/>
    </vehicle>
    <vehicle id="23" depart="23.00">
        <route edges="-4370939#0 4370939#0 4370939#1 4370939#2 -4370945 4259271#0 4259271#1 4259271#2 4259271#3 468720688 1018951422#0 1018951422#1 1018951417 38748498#0 38748498#1 262200662#3 436938220#2 436938220#3 1018951418 1018951421#0 1018951421#1"/>
    </vehicle>
    <vehicle id="27" depart="27.00">
        <route edges="4254010#2 4254010#3 4254010#4 4254010#5 240505256#0 240505256#1 4254009#0 4254009#1 4253812#3"/>
    </vehicle>
    <vehicle id="28" depart="28.00">
        <route edges="-468720689 -22760594#3 -22760594#2 -22760594#1 -22760594#0 4259249#0 4259249#1 4259249#2 4259249#3 4259271#0 4259271#1 4259271#2 4259271#3"/>
    </vehicle>
    <vehicle id="29" depart="29.00">
        <route edges="-4393240#4 -4393240#3 -4393240#2 -4393240#1 4393241 262200666#0 262200666#1 262200666#2 262200666#3 262200665#2 246902443 -325008373#1 -325008373#0 -4254044 240505256#0 240505256#1 240505256#2 240505256#3"/>
    </vehicle>
    <vehicle id="31" depart="31.00">
        <route edges="4253776#0 4253776#1 673569249#0 673569249#1 4253790#0 4253790#1 423007010#4 423007010#5 262200662#0 262200662#1 262200662#2 262200662#3 436938220#2 436938220#3 1018951418 1018951421#0 1018951421#1 1024601863#0 1024601863#1 1018951416 1018951413 1018951412 1018951410 936882273#0 936882273#1 -22760594#3 -22760594#2 -22760594#1 -22760594#0 4259249#0 4259249#1"/>
    </vehicle>
    <vehicle id="32" depart="32.00">
        <route edges="4376564#3 4393240#0 4393240#1 4393240#2 4393240#3 4393240#4 262200665#1 262200665#2 246902443 -325008373#1 -325008373#0 -4254044 240505256#0 240505256#1 240505256#2 240505256#3 423007010#0 423007010#1 423007010#2 423007010#3 423007010#4 423007010#5 262200662#0 262200662#1 262200662#2 262200662#3 436938220#2 436938220#3 1018951418 1018951421#0 1018951421#1 1024601863#0 1024601863#1 1018951416 1018951413 1018951412 1018951410 936882273#0 936882273#1 468720689 436938218#0"/>
    </vehicle>
    <vehicle id="34" depart="34.00">
        <route edges="136456829#0 136456829#1 136456829#2 55873935#0 55873935#1 423007010#0 423007010#1 423007010#2 423007010#3 423007010#4 423007010#5 262200662#0 262200662#1 262200662#2 38748498#2 38748498#3 1018951420"/>
    </vehicle>
    <vehicle id="36" depart="36.00">
        <route edges="4393240#3 4393240#4 262200665#1 262200665#2 246902443 -325008373#1 -325008373#0 -4254044 240505256#0 240505256#1 240505256#2 240505256#3 423007010#0 423007010#1 423007010#2 423007010#3 423007010#4 423007010#5 262200662#0 262200662#1 262200662#2 262200662#3 436938220#2 436938220#3 1018951418 1018951421#0 1018951421#1 1024601863#0 1024601863#1"/>
    </vehicle>
    <vehicle id="37" depart="37.00">
        <route edges="4254010#4 4254010#5 240505256#0 240505256#1 240505256#2 240505256#3 423007010#0 423007010#1 423007010#2 423007010#3 423007010#4 423007010#5 262200662#0 262200662#1 262200662#2"/>
    </vehicle>
    <vehicle id="38" depart="38.00">
        <route edges="542471105#6 542471105#7 -542471105#7 -542471105#6 -542471105#5 -542471105#4 -542471105#3 -542471105#2 -542471105#1 542471107#0 542471107#1 542471107#2 542471107#3 542471107#4 262200663#1 262200663#2 262200663#3 262200663#4 262200663#5 4253462#0 4253462#1 4253462#2 -4376564#5 -4376564#4 4393240#0 4393240#1 4393240#2 4393240#3 4393240#4 262200665#1 262200665#2 246902443 -325008373#1 -325008373#0 -4254044 240505256#0 240505256#1 240505256#2 240505256#3 423007010#0 423007010#1 4253792#0 4253792#1 673569250#0 673569250#1 4253785#0 4253785#1 4253812#1 4253875#0 4253875#1 275510215 275510216#0"/>
    </vehicle>
    <vehicle id="39" depart="39.00">
        <route edges="1018951422#1 1018951417 38748498#0 38748498#1 262200662#3 436938220#2 436938220#3 1018951418 1018951421#0 1018951421#1 1024601863#0 1024601863#1 1018951416 1018951413 1018951412 1018951410 936882273#0 936882273#1 468720689 436938218#0 436938218#1 1018951409 1018951411 1018951414 1018951415#0"/>
    </vehicle>
    <vehicle id="40" depart="40.00">
        <route edges="4253776#1 673569249#0 673569249#1 4253790#0 4253790#1 423007010#4 423007010#5 262200662#0 262200662#1 262200662#2 262200662#3 436938220#2 436938220#3 1018951418"/>
    </vehicle>
    <vehicle id="44" depart="44.00">
        <route edges="-4259354#1 -4259354#0 4259354#0 4259354#1 4259354#2 40976543#1 40976543#2 -40976541#2 -40976541#1 -40976541#0"/>
    </vehicle>
    <vehicle id="49" depart="49.00">
        <route edges="673569249#1 673025496#0 673025496#1 673025496#2 673569250#0 673569250#1 4253785#0 4253785#1 4253812#1 4253812#2 4253812#3 262200663#0 262200663#1 262200663#2 262200663#3 262200663#4 262200663#5 4253462#0 4253462#1 4253462#2 -4376564#5 -4376564#4 4393240#0"/>
    </vehicle>
    <vehicle id="50" depart="50.00">
        <route edges="-22760594#2 -22760594#1 -22760594#0 4259249#0 4259249#1 4259249#2 4259249#3 4259271#0"/>
    </vehicle>
    <vehicle id="54" depart="54.00">
        <route edges="275510216#0 275510216#1 275510216#2 240505256#3 423007010#0 423007010#1 4253792#0 4253792#1 673569250#0 673569250#1 4253785#0 4253785#1 1187614278#0 1187614278#1 1187614279 4253894#0 4253894#1 4254981#0 4254981#1 747872553#0 747872553#1 747872553#2 590640978"/>
    </vehicle>
    <vehicle id="55" depart="55.00">
        <route edges="4393240#3 4393240#4 262200665#1 262200665#2 246902443 -325008373#1 -325008373#0 -4254044 240505256#0 240505256#1 240505256#2 240505256#3 423007010#0 423007010#1 423007010#2 423007010#3 423007010#4 423007010#5 262200662#0 262200662#1 262200662#2 262200662#3 436938220#2 436938220#3 1018951418"/>
    </vehicle>
    <vehicle id="56" depart="56.00">
        <route edges="40976541#1 40976541#2 136456829#0 136456829#1 136456829#2 55873935#0 55873935#1 423007010#0 423007010#1 4253792#0 4253792#1 673569250#0 673569250#1 4253785#0 4253785#1 4253812#1 4253812#2 4253812#3 262200663#0 262200663#1 262200663#2 262200663#3 262200663#4 262200663#5 4253462#0 4253462#1 4253462#2 -4376564#5 -4376564#4 4393240#0 4393240#1 4393240#2 4393240#3 4393240#4 -4393240#4 -4393240#3 -4393240#2"/>
    </vehicle>
    <vehicle id="57" depart="57.00">
        <route edges="542471105#5 542471105#6 542471105#7 -542471105#7 -542471105#6 -542471105#5 -542471105#4 -542471105#3 -542471105#2 -542471105#1 542471107#0 542471107#1 542471107#2 542471107#3 542471107#4 262200663#1 262200663#2 262200663#3 262200663#4 262200663#5 4253462#0 4253462#1 4253462#2 -4376564#5 -4376564#4 4393240#0 4393240#1 4393240#2 4393240#3"/>
    </vehicle>
    <vehicle id="58" depart="58.00">
        <route edges="1044356411 4253812#0 4253812#1 4253812#2 4253812#3 4254010#0 4254010#1 4254010#2 4254010#3 4254010#4 4254010#5 240505256#0 240505256#1 4254009#0 4254009#1"/>
    </vehicle>
    <vehicle id="62" depart="62.00">
        <route edges="-211487026#1 -211487026#0 211487026#0 211487026#1 4376580#0 4376580#1 542471105#0 542471107#0 542471107#1 542471107#2 542471107#3 542471107#4 262200663#1 262200663#2 262200663#3 262200663#4 262200663#5 4253462#0 4253462#1 4253462#2 -4376564#5 -4376564#4 4393240#0 4393240#1 4393240#2 4393240#3 4393240#4 262200665#1 262200665#2 246902443 -325008373#1 -325008373#0 -4254044 240505256#0 240505256#1 240505256#2 240505256#3 423007010#0 423007010#1 4253792#0 4253792#1 673569250#0 673569250#1 4253785#0 4253785#1 1187614278#0 1187614278#1"/>
    </vehicle>
    <vehicle id="64" depart="64.00">
        <route edges="4393240#4 -4393240#4 -4393240#3 -4393240#2 -4393240#1 -4393240#0 -4376564#3 -4376564#2 -4376564#1 -4376564#0 4376564#0"/>
    </vehicle>
    <vehicle id="66" depart="66.00">
        <route edges="4393240#4 262200665#1 262200665#2 246902443 40976543#0 40976543#1 40976543#2 136456829#0 136456829#1 136456829#2 55873935#0"/>
    </vehicle>
    <vehicle id="67" depart="67.00">
        <route edges="-4259311#1 -4259311#0 4259311#0 4259311#1 4259311#2 4259249#2 4259249#3 4259271#0 4259271#1 4259271#2 4259271#3 468720688 1018951422#0 1018951422#1 1018951417 38748498#0 38748498#1"/>
    </vehicle>
    <vehicle id="70" depart="70.00">
        <route edges="325008373#0 325008373#1 -325008373#1 -325008373#0 -4254044 240505256#0 240505256#1 4254009#0 4254009#1 4253812#3 262200663#0 262200663#1 262200663#2 262200663#3 262200663#4 262200663#5 4253462#0 4253462#1 4253462#2"/>
    </vehicle>
    <vehicle id="73" depart="73.00">
        <route edges="423007010#5 262200662#0 262200662#1 262200662#2 262200662#3 436938220#2 436938220#3 1018951418 1018951421#0 1018951421#1 1024601863#0 1024601863#1 1018951416 1018951413 1018951412 1018951410 936882273#0 936882273#1 -22760594#3 -22760594#2 -22760594#1 -22760594#0 4259249#0 4259249#1 4259249#2 4259249#3 4259271#0 4259271#1 4259271#2 4259271#3"/>
    </vehicle>
    <vehicle id="74" depart="74.00">
        <route edges="-542471105#7 -542471105#6 -542471105#5 -542471105#4 -542471105#3 -542471105#2 -542471105#1 542471107#0 542471107#1 542471107#2 542471107#3 542471107#4 262200663#1 262200663#2 262200663#3 262200663#4 262200663#5 4253462#0 4253462#1 4253462#2 -4376564#5 -4376564#4 4393240#0 4393240#1 4393240#2 4393240#3 4393240#4 262200665#1 262200665#2 246902443 -325008373#1 -325008373#0 -4254044 240505256#0 240505256#1 240505256#2 240505256#3 423007010#0 423007010#1 423007010#2 423007010#3 423007010#4 423007010#5 262200662#0 262200662#1 262200662#2 262200662#3 436938220#2 436938220#3 1018951418 1018951421#0 1018951421#1 1024601863#0"/>
    </vehicle>
    <vehicle id="76" depart="76.00">
        <route edges="262200666#0 262200666#1 262200666#2 262200666#3 262200665#2 246902443 -325008373#1 -325008373#0 -4254044 240505256#0 240505256#1 240505256#2 240505256#3 423007010#0"/>
    </vehicle>
    <vehicle id="77" depart="77.00">
        <route edges="-4370989#1 -4370989#0 4370989#0 4370989#1 542471107#2 542471107#3 542471107#4 262200663#1 262200663#2 262200663#3 262200663#4 262200663#5 4253462#0 4253462#1 4253462#2 -4376564#5 -4376564#4 4393240#0 4393240#1 4393240#2 4393240#3 4393240#4 262200665#1 262200665#2 246902443 -325008373#1 -325008373#0 -4254044 240505256#0 240505256#1 240505256#2 240505256#3 423007010#0 423007010#1 423007010#2 423007010#3 423007010#4 423007010#5 262200662#0 262200662#1 262200662#2 262200662#3 436938220#2 436938220#3 1018951418 1018951421#0 1018951421#1 1024601863#0 1024601863#1 1018951416 1018951413 1018951412 1018951410 936882273#0 936882273#1 468720689 436938218#0 436938218#1 1018951409"/>
    </vehicle>
    <vehicle id="82" depart="82.00">
        <route edges="4376580#1 542471105#0 542471107#0 542471107#1 542471107#2 542471107#3 542471107#4 262200663#1 262200663#2 262200663#3 262200663#4 262200663#5 4253462#0 4253462#1 4253462#2 -4376564#5 -4376564#4 4393240#0 4393240#1 4393240#2 4393240#3 4393240#4 262200665#1 262200665#2 246902443 -325008373#1 -325008373#0 -4254044 240505256#0 240505256#1 240505256#2 240505256#3 423007010#0 423007010#1 423007010#2 423007010#3 423007010#4 423007010#5 262200662#0 262200662#1 262200662#2 262200662#3 436938220#2 436938220#3 1018951418 1018951421#0 1018951421#1 1024601863#0 1024601863#1 1018951416 1018951413 1018951412 1018951410 936882273#0 936882273#1 -22760594#3 -22760594#2 -22760594#1 -22760594#0 4259249#0 4259249#1 -4259249#1 -4259249#0"/>
    </vehicle>
    <vehicle id="85" depart="85.00">
        <route edges="542471107#2 542471107#3 542471107#4 262200663#1 262200663#2 262200663#3 262200663#4 262200663#5 4253462#0 4253462#1 4253462#2 -4376564#5 -4376564#4 4393240#0 4393240#1 4393240#2 4393240#3 4393240#4 262200665#1 262200665#2 246902443 -325008373#1 -325008373#0 -4254044 240505256#0 240505256#1 240505256#2 240505256#3 423007010#0 423007010#1 4253792#0 4253792#1 673569250#0 673569250#1 4253785#0 4253785#1"/>
    </vehicle>
    <vehicle id="88" depart="88.00">
        <route edges="-4259354#2 -4259354#1 -4259354#0 4259354#0 4259354#1 4259354#2 40976543#1 40976543#2 262200664#0 262200664#1"/>
    </vehicle>
    <vehicle id="89" depart="89.00">
        <route edges="262200665#0 262200665#1 262200665#2 246902443 -325008373#1 -325008373#0 -4254044 240505256#0 240505256#1 240505256#2 240505256#3 423007010#0 423007010#1 4253792#0 4253792#1 673569250#0 673569250#1 4253785#0 4253785#1 4253812#1 4253875#0 4253875#1 275510215 275510216#0 275510216#1 275510216#2"/>
    </vehicle>
    <vehicle id="90" depart="90.00">
        <route edges="4259271#3 1024601863#0 1024601863#1 1018951416 1018951413 1018951412 1018951410 936882273#0 936882273#1 -22760594#3 -22760594#2 -22760594#1 -22760594#0 4259126#0"/>
    </vehicle>
    <vehicle id="92" depart="92.00">
        <route edges="262200663#2 262200663#3 262200663#4 262200663#5 4253462#0 4253462#1 4253462#2 -4376564#5 -4376564#4 4393240#0 4393240#1 4393240#2 4393240#3 4393240#4 262200665#1 262200665#2 246902443 40976543#0 40976543#1 40976543#2 136456829#0 136456829#1 136456829#2"/>
    </vehicle>
    <vehicle id="93" depart="93.00">
        <route edges="4393240#0 4393240#1 4393240#2 4393240#3 4393240#4 262200665#1 262200665#2 246902443 -325008373#1 -325008373#0 -4254044 240505256#0 240505256#1 240505256#2 240505256#3 423007010#0 423007010#1 423007010#2 423007010#3 423007010#4 423007010#5 262200662#0 262200662#1 262200662#2 262200662#3 436938220#2 436938220#3 1018951418 1018951421#0 1018951421#1 1024601863#0 1024601863#1 1018951416 1018951413 1018951412 1018951410 936882273#0 936882273#1 468720689 436938218#0 436938218#1 1018951409 1018951411 1018951414 1018951415#0"/>
    </vehicle>
    <vehicle id="94" depart="94.00">
        <route edges="-542471105#4 -542471105#3 -542471105#2 -542471105#1 542471107#0 542471107#1 542471107#2 542471107#3 542471107#4 262200663#1 262200663#2 262200663#3 262200663#4 262200663#5 4253462#0 4253462#1 4253462#2 -4376564#5 -4376564#4 4393240#0 4393241 262200666#0 262200666#1 262200666#2"/>
    </vehicle>
    <vehicle id="95" depart="95.00">
        <route edges="262200664#1 -262200664#1 -262200664#0 136456829#0 136456829#1 136456829#2 55873935#0 55873935#1 423007010#0 423007010#1 423007010#2 423007010#3 423007010#4 423007010#5 262200662#0 262200662#1 262200662#2 262200662#3 436938220#2 436938220#3 1018951418 1018951421#0 1018951421#1"/>
    </vehicle>
    <vehicle id="97" depart="97.00">
        <route edges="262200666#2 262200666#3 262200665#2 246902443 -325008373#1 -325008373#0 -4254044 240505256#0 240505256#1 4254009#0 4254009#1 4253812#3 262200663#0 262200663#1 262200663#2 262200663#3 262200663#4 262200663#5 4253462#0 4253462#1 4253462#2 -4376564#5 -4376564#4 4393240#0"/>
    </vehicle>
    <vehicle id="98" depart="98.00">
        <route edges="4253462#2 -4376564#5 -4376564#4 4393240#0 4393240#1 4393240#2 4393240#3 4393240#4 262200665#1 262200665#2 246902443 40976543#0 40976543#1 40976543#2 -40976541#2 -40976541#1"/>
    </vehicle>
</routes>
