<?xml version="1.0" encoding="UTF-8"?>

<!-- generated on 2024-10-21 12:05:38.655134 by randomTrips.py v1_20_0+0002-343658e7c64
<configuration>
    <net-file value="map.net.xml"/>
    <route-file value="map.rou.xml"/>
    <end value="100.0"/>
</configuration>
-->

<routes xmlns:xsi="http://www.w3.org/2001/XMLSchema-instance" xsi:noNamespaceSchemaLocation="http://sumo.dlr.de/xsd/routes_file.xsd">
    <trip id="0" depart="0.00" from="4254009#1" to="-22760594#3"/>
    <trip id="1" depart="1.00" from="1018951425#0" to="1018951409"/>
    <trip id="2" depart="2.00" from="4259311#1" to="4259126#1"/>
    <trip id="3" depart="3.00" from="542471105#0" to="-4259262#0"/>
    <trip id="4" depart="4.00" from="262200664#1" to="-262200664#0"/>
    <trip id="5" depart="5.00" from="1018951413" to="40976541#2"/>
    <trip id="6" depart="6.00" from="-262200664#1" to="-542471105#0"/>
    <trip id="7" depart="7.00" from="4254010#2" to="4253462#1"/>
    <trip id="8" depart="8.00" from="1018951413" to="4253794#0"/>
    <trip id="9" depart="9.00" from="4370987#0" to="-211487026#0"/>
    <trip id="10" depart="10.00" from="4370945" to="4259262#0"/>
    <trip id="11" depart="11.00" from="22760594#0" to="-4376564#1"/>
    <trip id="12" depart="12.00" from="673025496#0" to="136456829#1"/>
    <trip id="13" depart="13.00" from="-4259354#1" to="-4259311#1"/>
    <trip id="14" depart="14.00" from="4376564#4" to="4253812#2"/>
    <trip id="15" depart="15.00" from="4370945" to="4259271#3"/>
    <trip id="16" depart="16.00" from="423007010#5" to="673569249#1"/>
    <trip id="17" depart="17.00" from="262200662#0" to="4253462#3"/>
    <trip id="18" depart="18.00" from="4370989#1" to="4253875#0"/>
    <trip id="19" depart="19.00" from="4393240#0" to="4253790#1"/>
    <trip id="20" depart="20.00" from="4259268#0" to="-40976541#0"/>
    <trip id="21" depart="21.00" from="1018951415#0" to="1018951423"/>
    <trip id="22" depart="22.00" from="-4259262#1" to="1018951411"/>
    <trip id="23" depart="23.00" from="-4370939#0" to="1018951421#1"/>
    <trip id="24" depart="24.00" from="4254009#0" to="232724498#1"/>
    <trip id="25" depart="25.00" from="240505256#2" to="-542471105#3"/>
    <trip id="26" depart="26.00" from="1018951423" to="542471107#2"/>
    <trip id="27" depart="27.00" from="4254010#2" to="4253812#3"/>
    <trip id="28" depart="28.00" from="-468720689" to="4259271#3"/>
    <trip id="29" depart="29.00" from="-4393240#4" to="240505256#3"/>
    <trip id="30" depart="30.00" from="747872553#2" to="4254010#0"/>
    <trip id="31" depart="31.00" from="4253776#0" to="4259249#1"/>
    <trip id="32" depart="32.00" from="4376564#3" to="436938218#0"/>
    <trip id="33" depart="33.00" from="1018951415#1" to="-262200664#0"/>
    <trip id="34" depart="34.00" from="136456829#0" to="1018951420"/>
    <trip id="35" depart="35.00" from="1018951411" to="542471107#4"/>
    <trip id="36" depart="36.00" from="4393240#3" to="1024601863#1"/>
    <trip id="37" depart="37.00" from="4254010#4" to="262200662#2"/>
    <trip id="38" depart="38.00" from="542471105#6" to="275510216#0"/>
    <trip id="39" depart="39.00" from="1018951422#1" to="1018951415#0"/>
    <trip id="40" depart="40.00" from="4253776#1" to="1018951418"/>
    <trip id="41" depart="41.00" from="4253794#0" to="542471105#2"/>
    <trip id="42" depart="42.00" from="262200663#1" to="-542471105#5"/>
    <trip id="43" depart="43.00" from="936882273#1" to="40976543#1"/>
    <trip id="44" depart="44.00" from="-4259354#1" to="-40976541#0"/>
    <trip id="45" depart="45.00" from="-4370945" to="4253894#0"/>
    <trip id="46" depart="46.00" from="436938220#3" to="262200663#5"/>
    <trip id="47" depart="47.00" from="-4259249#0" to="240505256#3"/>
    <trip id="48" depart="48.00" from="936882273#0" to="423007010#3"/>
    <trip id="49" depart="49.00" from="673569249#1" to="4393240#0"/>
    <trip id="50" depart="50.00" from="-22760594#2" to="4259271#0"/>
    <trip id="51" depart="51.00" from="4259249#1" to="423007010#5"/>
    <trip id="52" depart="52.00" from="1018951423" to="4254010#0"/>
    <trip id="53" depart="53.00" from="-4370945" to="262200665#1"/>
    <trip id="54" depart="54.00" from="275510216#0" to="590640978"/>
    <trip id="55" depart="55.00" from="4393240#3" to="1018951418"/>
    <trip id="56" depart="56.00" from="40976541#1" to="-4393240#2"/>
    <trip id="57" depart="57.00" from="542471105#5" to="4393240#3"/>
    <trip id="58" depart="58.00" from="1044356411" to="4254009#1"/>
    <trip id="59" depart="59.00" from="4253830#0" to="-4376564#1"/>
    <trip id="60" depart="60.00" from="4358454#1" to="4253462#0"/>
    <trip id="61" depart="61.00" from="436938218#1" to="423007010#3"/>
    <trip id="62" depart="62.00" from="-211487026#1" to="1187614278#1"/>
    <trip id="63" depart="63.00" from="-246902443" to="542471107#0"/>
    <trip id="64" depart="64.00" from="4393240#4" to="4376564#0"/>
    <trip id="65" depart="65.00" from="1187614278#1" to="-40976543#0"/>
    <trip id="66" depart="66.00" from="4393240#4" to="55873935#0"/>
    <trip id="67" depart="67.00" from="-4259311#1" to="38748498#1"/>
    <trip id="68" depart="68.00" from="-4259249#2" to="4358454#1"/>
    <trip id="69" depart="69.00" from="4358454#2" to="-4370945"/>
    <trip id="70" depart="70.00" from="325008373#0" to="4253462#2"/>
    <trip id="71" depart="71.00" from="1018951422#1" to="4393240#3"/>
    <trip id="72" depart="72.00" from="262200664#1" to="-542471105#3"/>
    <trip id="73" depart="73.00" from="423007010#5" to="4259271#3"/>
    <trip id="74" depart="74.00" from="-542471105#7" to="1024601863#0"/>
    <trip id="75" depart="75.00" from="936882273#0" to="4254010#2"/>
    <trip id="76" depart="76.00" from="262200666#0" to="423007010#0"/>
    <trip id="77" depart="77.00" from="-4370989#1" to="1018951409"/>
    <trip id="78" depart="78.00" from="22760594#0" to="4253794#0"/>
    <trip id="79" depart="79.00" from="1018951415#1" to="-542471105#6"/>
    <trip id="80" depart="80.00" from="-4259249#2" to="4253894#1"/>
    <trip id="81" depart="81.00" from="1018951415#1" to="542471105#4"/>
    <trip id="82" depart="82.00" from="4376580#1" to="-4259249#0"/>
    <trip id="83" depart="83.00" from="1018951417" to="4254981#0"/>
    <trip id="84" depart="84.00" from="1018951412" to="-4370988#0"/>
    <trip id="85" depart="85.00" from="542471107#2" to="4253785#1"/>
    <trip id="86" depart="86.00" from="325008373#0" to="436938220#1"/>
    <trip id="87" depart="87.00" from="4370945" to="-4393241"/>
    <trip id="88" depart="88.00" from="-4259354#2" to="262200664#1"/>
    <trip id="89" depart="89.00" from="262200665#0" to="275510216#2"/>
    <trip id="90" depart="90.00" from="4259271#3" to="4259126#0"/>
    <trip id="91" depart="91.00" from="747872553#0" to="-4259311#1"/>
    <trip id="92" depart="92.00" from="262200663#2" to="136456829#2"/>
    <trip id="93" depart="93.00" from="4393240#0" to="1018951415#0"/>
    <trip id="94" depart="94.00" from="-542471105#4" to="262200666#2"/>
    <trip id="95" depart="95.00" from="262200664#1" to="1018951421#1"/>
    <trip id="96" depart="96.00" from="1018951420" to="542471106#1"/>
    <trip id="97" depart="97.00" from="262200666#2" to="4393240#0"/>
    <trip id="98" depart="98.00" from="4253462#2" to="-40976541#1"/>
    <trip id="99" depart="99.00" from="936882273#1" to="4376564#1"/>
</routes>
