<?xml version="1.0" encoding="UTF-8"?>

<!-- generated on 2024-10-24 11:11:10 by Eclipse SUMO netconvert Version 1.20.0
<configuration xmlns:xsi="http://www.w3.org/2001/XMLSchema-instance" xsi:noNamespaceSchemaLocation="http://sumo.dlr.de/xsd/netconvertConfiguration.xsd">

    <input>
        <osm-files value="C:\Users\asus\Desktop\AIP\Project Code\urban-mobility-simulation\backend\controllers\2024-10-24T15-11-09-655Z\map.osm"/>
    </input>

    <output>
        <output-file value="map.net.xml"/>
    </output>

    <projection>
        <proj.utm value="true"/>
    </projection>

</configuration>
-->

<net version="1.20" junctionCornerDetail="5" limitTurnSpeed="5.50" xmlns:xsi="http://www.w3.org/2001/XMLSchema-instance" xsi:noNamespaceSchemaLocation="http://sumo.dlr.de/xsd/net_file.xsd">

    <location netOffset="-166960.79,-526030.30" convBoundary="0.00,0.00,1764.24,2773.99" origBoundary="5.998070,4.735770,6.099628,4.921281" projParameter="+proj=utm +zone=32 +ellps=WGS84 +datum=WGS84 +units=m +no_defs"/>

    <type id="highway.path" priority="1" numLanes="1" speed="5.56" allow="pedestrian bicycle" oneway="0" width="2.00"/>
    <type id="highway.residential" priority="3" numLanes="1" speed="13.89" disallow="tram rail_urban rail rail_electric rail_fast ship container cable_car subway aircraft wheelchair scooter drone" oneway="0"/>
    <type id="highway.service" priority="1" numLanes="1" speed="5.56" allow="pedestrian delivery bicycle" oneway="0"/>

    <edge id=":7731273921_0" function="internal">
        <lane id=":7731273921_0_0" index="0" allow="pedestrian delivery bicycle" speed="3.65" length="4.67" shape="142.74,2775.22 141.31,2775.37 140.49,2775.01 140.29,2774.13 140.70,2772.75"/>
    </edge>
    <edge id=":7731273924_0" function="internal">
        <lane id=":7731273924_0_0" index="0" allow="pedestrian delivery bicycle" speed="9.72" length="0.11" shape="558.83,2425.44 558.74,2425.52"/>
    </edge>
    <edge id=":7731273924_1" function="internal">
        <lane id=":7731273924_1_0" index="0" disallow="tram rail_urban rail rail_electric rail_fast ship container cable_car subway aircraft wheelchair scooter drone" speed="3.65" length="2.34" shape="558.83,2425.44 557.39,2425.53 556.58,2425.14"/>
    </edge>
    <edge id=":7731273924_3" function="internal">
        <lane id=":7731273924_3_0" index="0" disallow="tram rail_urban rail rail_electric rail_fast ship container cable_car subway aircraft wheelchair scooter drone" speed="3.65" length="2.34" shape="556.58,2425.14 556.42,2424.26 556.89,2422.89"/>
    </edge>
    <edge id=":7731273924_2" function="internal">
        <lane id=":7731273924_2_0" index="0" allow="pedestrian delivery bicycle" speed="9.72" length="0.34" shape="556.63,2423.11 556.89,2422.89"/>
    </edge>
    <edge id=":7731273933_0" function="internal">
        <lane id=":7731273933_0_0" index="0" allow="pedestrian delivery bicycle" speed="5.19" length="5.05" shape="1714.60,2082.09 1714.04,2080.80 1713.22,2079.96 1712.15,2079.58 1710.81,2079.65"/>
    </edge>
    <edge id=":7731273933_1" function="internal">
        <lane id=":7731273933_1_0" index="0" allow="pedestrian delivery bicycle" speed="6.88" length="10.07" shape="1714.60,2082.09 1714.23,2079.36 1714.81,2077.15 1716.35,2075.47 1718.85,2074.31"/>
    </edge>
    <edge id=":7731273933_2" function="internal">
        <lane id=":7731273933_2_0" index="0" allow="pedestrian delivery bicycle" speed="3.65" length="4.67" shape="1714.60,2082.09 1715.04,2080.71 1715.70,2080.11 1716.58,2080.28 1717.68,2081.21"/>
    </edge>
    <edge id=":7731273933_3" function="internal">
        <lane id=":7731273933_3_0" index="0" allow="pedestrian delivery bicycle" speed="5.06" length="4.98" shape="1719.78,2077.37 1718.54,2077.94 1717.78,2078.78 1717.49,2079.87 1717.68,2081.21"/>
    </edge>
    <edge id=":7731273933_4" function="internal">
        <lane id=":7731273933_4_0" index="0" disallow="tram rail_urban rail rail_electric rail_fast ship container cable_car subway aircraft wheelchair scooter drone" speed="13.89" length="9.26" shape="1719.78,2077.37 1717.15,2078.16 1715.33,2078.67 1713.50,2079.09 1710.81,2079.65"/>
    </edge>
    <edge id=":7731273933_5" function="internal">
        <lane id=":7731273933_5_0" index="0" disallow="tram rail_urban rail rail_electric rail_fast ship container cable_car subway aircraft wheelchair scooter drone" speed="13.89" length="8.96" shape="1710.17,2076.52 1712.77,2075.98 1714.55,2075.56 1716.30,2075.07 1718.85,2074.31"/>
    </edge>
    <edge id=":7731273933_6" function="internal">
        <lane id=":7731273933_6_0" index="0" allow="pedestrian delivery bicycle" speed="6.98" length="3.16" shape="1710.17,2076.52 1712.83,2076.36 1713.29,2076.52"/>
    </edge>
    <edge id=":7731273933_7" function="internal">
        <lane id=":7731273933_7_0" index="0" allow="pedestrian delivery bicycle" speed="6.98" length="6.78" shape="1713.29,2076.52 1714.96,2077.09 1716.58,2078.71 1717.68,2081.21"/>
    </edge>
    <edge id=":7731273934_0" function="internal">
        <lane id=":7731273934_0_0" index="0" disallow="tram rail_urban rail rail_electric rail_fast ship container cable_car subway aircraft wheelchair scooter drone" speed="3.65" length="4.67" shape="1763.78,2060.65 1765.16,2061.07 1765.77,2061.72 1765.62,2062.60 1764.71,2063.71"/>
    </edge>
    <edge id=":7731273939_0" function="internal">
        <lane id=":7731273939_0_0" index="0" allow="pedestrian delivery bicycle" speed="3.65" length="4.67" shape="55.43,2576.28 55.71,2577.69 55.42,2578.54 54.57,2578.82 53.16,2578.53"/>
    </edge>
    <edge id=":7731273943_0" function="internal">
        <lane id=":7731273943_0_0" index="0" allow="pedestrian delivery bicycle" speed="5.12" length="5.07" shape="311.53,2230.05 310.42,2229.18 309.30,2228.86 308.18,2229.08 307.06,2229.84"/>
    </edge>
    <edge id=":7731273943_1" function="internal">
        <lane id=":7731273943_1_0" index="0" allow="pedestrian delivery bicycle" speed="5.56" length="10.22" shape="311.53,2230.05 309.87,2227.79 309.35,2225.55 309.95,2223.32 311.68,2221.12"/>
    </edge>
    <edge id=":7731273943_2" function="internal">
        <lane id=":7731273943_2_0" index="0" allow="pedestrian delivery bicycle" speed="3.65" length="4.67" shape="311.53,2230.05 311.26,2228.63 311.56,2227.79 312.41,2227.51 313.82,2227.81"/>
    </edge>
    <edge id=":7731273943_3" function="internal">
        <lane id=":7731273943_3_0" index="0" allow="pedestrian delivery bicycle" speed="5.03" length="5.01" shape="313.89,2223.43 313.04,2224.51 312.75,2225.60 313.01,2226.70 313.82,2227.81"/>
    </edge>
    <edge id=":7731273943_4" function="internal">
        <lane id=":7731273943_4_0" index="0" allow="pedestrian delivery bicycle" speed="5.56" length="9.37" shape="313.89,2223.43 307.06,2229.84"/>
    </edge>
    <edge id=":7731273943_5" function="internal">
        <lane id=":7731273943_5_0" index="0" allow="pedestrian delivery bicycle" speed="3.65" length="4.67" shape="313.89,2223.43 312.47,2223.68 311.63,2223.38 311.36,2222.52 311.68,2221.12"/>
    </edge>
    <edge id=":7731273943_6" function="internal">
        <lane id=":7731273943_6_0" index="0" allow="pedestrian delivery bicycle" speed="5.56" length="9.30" shape="304.89,2227.48 311.68,2221.12"/>
    </edge>
    <edge id=":7731273943_7" function="internal">
        <lane id=":7731273943_7_0" index="0" allow="pedestrian delivery bicycle" speed="5.56" length="10.12" shape="304.89,2227.48 307.15,2225.94 309.39,2225.48 311.61,2226.11 313.82,2227.81"/>
    </edge>
    <edge id=":7731273943_8" function="internal">
        <lane id=":7731273943_8_0" index="0" allow="pedestrian delivery bicycle" speed="3.65" length="4.67" shape="304.89,2227.48 306.32,2227.26 307.15,2227.58 307.40,2228.44 307.06,2229.84"/>
    </edge>
    <edge id=":7731273948_0" function="internal">
        <lane id=":7731273948_0_0" index="0" allow="pedestrian delivery bicycle" speed="4.94" length="5.13" shape="379.89,2164.80 378.86,2163.81 377.79,2163.42 376.68,2163.65 375.52,2164.48"/>
    </edge>
    <edge id=":7731273948_1" function="internal">
        <lane id=":7731273948_1_0" index="0" allow="pedestrian delivery bicycle" speed="5.56" length="10.22" shape="379.89,2164.80 378.41,2162.30 377.96,2159.94 378.53,2157.72 380.12,2155.64"/>
    </edge>
    <edge id=":7731273948_2" function="internal">
        <lane id=":7731273948_2_0" index="0" allow="pedestrian delivery bicycle" speed="3.65" length="4.67" shape="379.89,2164.80 379.79,2163.36 380.17,2162.55 381.05,2162.38 382.42,2162.84"/>
    </edge>
    <edge id=":7731273948_3" function="internal">
        <lane id=":7731273948_3_0" index="0" allow="pedestrian delivery bicycle" speed="5.40" length="5.44" shape="382.33,2157.95 381.54,2159.02 381.29,2160.19 381.58,2161.46 382.42,2162.84"/>
    </edge>
    <edge id=":7731273948_4" function="internal">
        <lane id=":7731273948_4_0" index="0" allow="pedestrian delivery bicycle" speed="5.56" length="9.43" shape="382.33,2157.95 375.52,2164.48"/>
    </edge>
    <edge id=":7731273948_5" function="internal">
        <lane id=":7731273948_5_0" index="0" allow="pedestrian delivery bicycle" speed="3.65" length="4.67" shape="382.33,2157.95 380.91,2158.21 380.07,2157.90 379.81,2157.05 380.12,2155.64"/>
    </edge>
    <edge id=":7731273948_6" function="internal">
        <lane id=":7731273948_6_0" index="0" allow="pedestrian delivery bicycle" speed="5.56" length="9.43" shape="373.30,2162.16 380.12,2155.64"/>
    </edge>
    <edge id=":7731273948_7" function="internal">
        <lane id=":7731273948_7_0" index="0" allow="pedestrian delivery bicycle" speed="5.56" length="10.69" shape="373.30,2162.16 375.72,2160.44 378.05,2159.97 380.28,2160.77 382.42,2162.84"/>
    </edge>
    <edge id=":7731273948_8" function="internal">
        <lane id=":7731273948_8_0" index="0" allow="pedestrian delivery bicycle" speed="3.65" length="4.67" shape="373.30,2162.16 374.72,2161.91 375.57,2162.21 375.83,2163.07 375.52,2164.48"/>
    </edge>
    <edge id=":7731273949_0" function="internal">
        <lane id=":7731273949_0_0" index="0" allow="pedestrian delivery bicycle" speed="5.56" length="9.63" shape="441.84,2234.90 433.72,2240.08"/>
    </edge>
    <edge id=":7731273949_1" function="internal">
        <lane id=":7731273949_1_0" index="0" allow="pedestrian delivery bicycle" speed="5.56" length="10.31" shape="441.84,2234.90 439.41,2236.03 437.11,2236.10 434.92,2235.10 432.84,2233.04"/>
    </edge>
    <edge id=":7731273949_2" function="internal">
        <lane id=":7731273949_2_0" index="0" allow="pedestrian delivery bicycle" speed="3.65" length="4.67" shape="441.84,2234.90 440.40,2234.90 439.62,2234.46 439.50,2233.58 440.06,2232.24"/>
    </edge>
    <edge id=":7731273949_3" function="internal">
        <lane id=":7731273949_3_0" index="0" allow="pedestrian delivery bicycle" speed="5.33" length="5.41" shape="435.37,2231.08 436.49,2232.21 437.64,2232.78 438.83,2232.79 440.06,2232.24"/>
    </edge>
    <edge id=":7731273949_4" function="internal">
        <lane id=":7731273949_4_0" index="0" allow="pedestrian delivery bicycle" speed="5.56" length="10.73" shape="435.37,2231.08 436.85,2233.67 437.07,2236.04 436.02,2238.18 433.72,2240.08"/>
    </edge>
    <edge id=":7731273949_5" function="internal">
        <lane id=":7731273949_5_0" index="0" allow="pedestrian delivery bicycle" speed="3.65" length="4.67" shape="435.37,2231.08 435.48,2232.52 435.09,2233.32 434.21,2233.50 432.84,2233.04"/>
    </edge>
    <edge id=":7731273949_6" function="internal">
        <lane id=":7731273949_6_0" index="0" allow="pedestrian delivery bicycle" speed="4.93" length="5.14" shape="432.06,2237.35 433.16,2236.44 433.66,2235.42 433.55,2234.28 432.84,2233.04"/>
    </edge>
    <edge id=":7731273949_7" function="internal">
        <lane id=":7731273949_7_0" index="0" allow="pedestrian delivery bicycle" speed="5.56" length="9.49" shape="432.06,2237.35 440.06,2232.24"/>
    </edge>
    <edge id=":7731273949_8" function="internal">
        <lane id=":7731273949_8_0" index="0" allow="pedestrian delivery bicycle" speed="3.65" length="4.67" shape="432.06,2237.35 433.50,2237.41 434.26,2237.88 434.33,2238.77 433.72,2240.08"/>
    </edge>
    <edge id=":7731273950_0" function="internal">
        <lane id=":7731273950_0_0" index="0" allow="pedestrian delivery bicycle" speed="4.85" length="5.27" shape="431.81,2115.33 430.86,2114.18 429.81,2113.71 428.69,2113.91 427.47,2114.77"/>
    </edge>
    <edge id=":7731273950_1" function="internal">
        <lane id=":7731273950_1_0" index="0" allow="pedestrian delivery bicycle" speed="5.56" length="10.35" shape="431.81,2115.33 430.50,2112.58 430.13,2110.09 430.68,2107.85 432.16,2105.86"/>
    </edge>
    <edge id=":7731273950_2" function="internal">
        <lane id=":7731273950_2_0" index="0" allow="pedestrian delivery bicycle" speed="3.65" length="4.67" shape="431.81,2115.33 431.86,2113.89 432.33,2113.12 433.22,2113.04 434.54,2113.64"/>
    </edge>
    <edge id=":7731273950_3" function="internal">
        <lane id=":7731273950_3_0" index="0" allow="pedestrian delivery bicycle" speed="5.56" length="5.95" shape="434.37,2108.17 433.62,2109.24 433.40,2110.51 433.71,2111.98 434.54,2113.64"/>
    </edge>
    <edge id=":7731273950_4" function="internal">
        <lane id=":7731273950_4_0" index="0" allow="pedestrian delivery bicycle" speed="5.56" length="9.54" shape="434.37,2108.17 427.47,2114.77"/>
    </edge>
    <edge id=":7731273950_5" function="internal">
        <lane id=":7731273950_5_0" index="0" allow="pedestrian delivery bicycle" speed="3.65" length="4.67" shape="434.37,2108.17 432.95,2108.43 432.11,2108.12 431.84,2107.27 432.16,2105.86"/>
    </edge>
    <edge id=":7731273950_6" function="internal">
        <lane id=":7731273950_6_0" index="0" allow="pedestrian delivery bicycle" speed="5.56" length="9.54" shape="425.26,2112.46 432.16,2105.86"/>
    </edge>
    <edge id=":7731273950_7" function="internal">
        <lane id=":7731273950_7_0" index="0" allow="pedestrian delivery bicycle" speed="5.56" length="11.27" shape="425.26,2112.46 427.85,2110.61 430.26,2110.19 432.49,2111.20 434.54,2113.64"/>
    </edge>
    <edge id=":7731273950_8" function="internal">
        <lane id=":7731273950_8_0" index="0" allow="pedestrian delivery bicycle" speed="3.65" length="4.67" shape="425.26,2112.46 426.68,2112.21 427.52,2112.51 427.79,2113.36 427.47,2114.77"/>
    </edge>
    <edge id=":7731273951_0" function="internal">
        <lane id=":7731273951_0_0" index="0" allow="pedestrian delivery bicycle" speed="5.56" length="9.62" shape="493.63,2203.45 485.31,2208.28"/>
    </edge>
    <edge id=":7731273951_1" function="internal">
        <lane id=":7731273951_1_0" index="0" allow="pedestrian delivery bicycle" speed="5.56" length="10.28" shape="493.63,2203.45 491.07,2204.54 488.76,2204.53 486.70,2203.43 484.88,2201.23"/>
    </edge>
    <edge id=":7731273951_2" function="internal">
        <lane id=":7731273951_2_0" index="0" allow="pedestrian delivery bicycle" speed="3.65" length="4.67" shape="493.63,2203.45 492.19,2203.39 491.43,2202.92 491.35,2202.03 491.96,2200.72"/>
    </edge>
    <edge id=":7731273951_3" function="internal">
        <lane id=":7731273951_3_0" index="0" allow="pedestrian delivery bicycle" speed="5.11" length="5.14" shape="487.60,2199.55 488.52,2200.67 489.55,2201.23 490.70,2201.25 491.96,2200.72"/>
    </edge>
    <edge id=":7731273951_4" function="internal">
        <lane id=":7731273951_4_0" index="0" allow="pedestrian delivery bicycle" speed="5.56" length="10.41" shape="487.60,2199.55 488.75,2202.18 488.75,2204.52 487.60,2206.55 485.31,2208.28"/>
    </edge>
    <edge id=":7731273951_5" function="internal">
        <lane id=":7731273951_5_0" index="0" allow="pedestrian delivery bicycle" speed="3.65" length="4.67" shape="487.60,2199.55 487.55,2200.99 487.08,2201.75 486.19,2201.83 484.88,2201.23"/>
    </edge>
    <edge id=":7731273951_6" function="internal">
        <lane id=":7731273951_6_0" index="0" allow="pedestrian delivery bicycle" speed="4.99" length="5.06" shape="483.76,2205.47 484.88,2204.63 485.44,2203.65 485.44,2202.51 484.88,2201.23"/>
    </edge>
    <edge id=":7731273951_7" function="internal">
        <lane id=":7731273951_7_0" index="0" allow="pedestrian delivery bicycle" speed="5.56" length="9.48" shape="483.76,2205.47 491.96,2200.72"/>
    </edge>
    <edge id=":7731273951_8" function="internal">
        <lane id=":7731273951_8_0" index="0" allow="pedestrian delivery bicycle" speed="3.65" length="4.67" shape="483.76,2205.47 485.20,2205.60 485.94,2206.10 485.97,2207.00 485.31,2208.28"/>
    </edge>
    <edge id=":7731273956_0" function="internal">
        <lane id=":7731273956_0_0" index="0" allow="pedestrian delivery bicycle" speed="3.65" length="4.67" shape="1737.35,2150.68 1736.91,2152.05 1736.25,2152.65 1735.37,2152.49 1734.27,2151.55"/>
    </edge>
    <edge id=":7784666278_0" function="internal">
        <lane id=":7784666278_0_0" index="0" allow="pedestrian bicycle" speed="2.89" length="2.92" width="2.00" shape="514.12,0.42 514.26,-0.47 514.61,-0.91 515.16,-0.89 515.93,-0.42"/>
    </edge>
    <edge id=":7784666322_0" function="internal">
        <lane id=":7784666322_0_0" index="0" allow="pedestrian delivery bicycle" speed="5.56" length="7.01" shape="395.85,2145.02 390.79,2149.86"/>
    </edge>
    <edge id=":7784666322_1" function="internal">
        <lane id=":7784666322_1_0" index="0" allow="pedestrian bicycle" speed="5.56" length="8.95" width="2.00" shape="395.85,2145.02 394.09,2146.15 392.23,2146.26 390.26,2145.35 388.20,2143.42"/>
    </edge>
    <edge id=":7784666322_2" function="internal">
        <lane id=":7784666322_2_0" index="0" allow="pedestrian delivery bicycle" speed="3.65" length="4.67" shape="395.85,2145.02 394.43,2145.27 393.59,2144.97 393.33,2144.12 393.64,2142.71"/>
    </edge>
    <edge id=":7784666322_3" function="internal">
        <lane id=":7784666322_3_0" index="0" allow="pedestrian bicycle" speed="4.61" length="4.57" width="2.00" shape="389.71,2142.11 390.73,2143.04 391.73,2143.45 392.70,2143.34 393.64,2142.71"/>
    </edge>
    <edge id=":7784666322_4" function="internal">
        <lane id=":7784666322_4_0" index="0" allow="pedestrian bicycle" speed="5.56" length="8.74" width="2.00" shape="389.71,2142.11 391.34,2144.40 392.06,2146.45 391.88,2148.27 390.79,2149.86"/>
    </edge>
    <edge id=":7784666322_5" function="internal">
        <lane id=":7784666322_5_0" index="0" allow="pedestrian bicycle" speed="2.89" length="2.92" width="2.00" shape="389.71,2142.11 389.83,2143.00 389.61,2143.52 389.07,2143.66 388.20,2143.42"/>
    </edge>
    <edge id=":7784666322_6" function="internal">
        <lane id=":7784666322_6_0" index="0" allow="pedestrian bicycle" speed="4.97" length="4.66" width="2.00" shape="388.58,2147.55 389.21,2146.66 389.36,2145.68 389.02,2144.60 388.20,2143.42"/>
    </edge>
    <edge id=":7784666322_7" function="internal">
        <lane id=":7784666322_7_0" index="0" allow="pedestrian delivery bicycle" speed="5.56" length="7.01" shape="388.58,2147.55 393.64,2142.71"/>
    </edge>
    <edge id=":7784666322_8" function="internal">
        <lane id=":7784666322_8_0" index="0" allow="pedestrian delivery bicycle" speed="3.65" length="4.67" shape="388.58,2147.55 390.00,2147.30 390.84,2147.60 391.11,2148.46 390.79,2149.86"/>
    </edge>
    <edge id=":9743227475_0" function="internal">
        <lane id=":9743227475_0_0" index="0" allow="pedestrian delivery bicycle" speed="5.19" length="5.31" shape="465.12,2223.48 464.09,2222.34 462.99,2221.77 461.82,2221.77 460.58,2222.34"/>
    </edge>
    <edge id=":9743227475_1" function="internal">
        <lane id=":9743227475_1_0" index="0" allow="pedestrian delivery bicycle" speed="5.56" length="10.69" shape="465.12,2223.48 463.79,2220.82 463.69,2218.45 464.83,2216.37 467.20,2214.58"/>
    </edge>
    <edge id=":9743227475_2" function="internal">
        <lane id=":9743227475_2_0" index="0" allow="pedestrian delivery bicycle" speed="3.65" length="4.67" shape="465.12,2223.48 465.09,2222.04 465.52,2221.26 466.40,2221.13 467.74,2221.66"/>
    </edge>
    <edge id=":9743227475_3" function="internal">
        <lane id=":9743227475_3_0" index="0" allow="pedestrian delivery bicycle" speed="4.94" length="5.13" shape="468.75,2217.39 467.61,2218.25 467.06,2219.25 467.11,2220.38 467.74,2221.66"/>
    </edge>
    <edge id=":9743227475_4" function="internal">
        <lane id=":9743227475_4_0" index="0" allow="pedestrian delivery bicycle" speed="5.56" length="9.56" shape="468.75,2217.39 466.26,2218.76 464.58,2219.73 462.94,2220.77 460.58,2222.34"/>
    </edge>
    <edge id=":9743227475_5" function="internal">
        <lane id=":9743227475_5_0" index="0" allow="pedestrian delivery bicycle" speed="3.65" length="4.67" shape="468.75,2217.39 467.31,2217.27 466.57,2216.76 466.54,2215.86 467.20,2214.58"/>
    </edge>
    <edge id=":9743227475_6" function="internal">
        <lane id=":9743227475_6_0" index="0" allow="pedestrian delivery bicycle" speed="5.56" length="9.84" shape="458.80,2219.68 461.23,2218.06 462.92,2216.99 464.65,2216.00 467.20,2214.58"/>
    </edge>
    <edge id=":9743227475_7" function="internal">
        <lane id=":9743227475_7_0" index="0" allow="pedestrian delivery bicycle" speed="5.56" length="10.41" shape="458.80,2219.68 461.30,2218.50 463.62,2218.44 465.77,2219.49 467.74,2221.66"/>
    </edge>
    <edge id=":9743227475_8" function="internal">
        <lane id=":9743227475_8_0" index="0" allow="pedestrian delivery bicycle" speed="3.65" length="4.67" shape="458.80,2219.68 460.24,2219.68 461.02,2220.12 461.13,2221.01 460.58,2222.34"/>
    </edge>
    <edge id=":9743227476_0" function="internal">
        <lane id=":9743227476_0_0" index="0" allow="pedestrian delivery bicycle" speed="3.65" length="4.67" shape="478.61,2237.32 478.64,2238.76 478.21,2239.54 477.32,2239.67 475.98,2239.14"/>
    </edge>
    <edge id=":9743227478_0" function="internal">
        <lane id=":9743227478_0_0" index="0" disallow="tram rail_urban rail rail_electric rail_fast ship container cable_car subway aircraft wheelchair scooter drone" speed="13.89" length="9.65" shape="962.93,2211.25 953.91,2214.69"/>
    </edge>
    <edge id=":9743227478_1" function="internal">
        <lane id=":9743227478_1_0" index="0" allow="pedestrian delivery bicycle" speed="6.75" length="3.53" shape="962.93,2211.25 959.94,2211.98 959.50,2211.89"/>
    </edge>
    <edge id=":9743227478_7" function="internal">
        <lane id=":9743227478_7_0" index="0" allow="pedestrian delivery bicycle" speed="6.75" length="7.45" shape="959.50,2211.89 957.57,2211.50 955.84,2209.83 954.73,2206.96"/>
    </edge>
    <edge id=":9743227478_2" function="internal">
        <lane id=":9743227478_2_0" index="0" allow="pedestrian delivery bicycle" speed="4.89" length="5.20" shape="957.85,2206.25 958.37,2207.61 959.20,2208.40 960.32,2208.62 961.73,2208.28"/>
    </edge>
    <edge id=":9743227478_3" function="internal">
        <lane id=":9743227478_3_0" index="0" allow="pedestrian delivery bicycle" speed="7.23" length="10.35" shape="957.85,2206.25 958.16,2209.21 957.61,2211.61 956.19,2213.44 953.91,2214.69"/>
    </edge>
    <edge id=":9743227478_4" function="internal">
        <lane id=":9743227478_4_0" index="0" allow="pedestrian delivery bicycle" speed="3.65" length="4.67" shape="957.85,2206.25 957.34,2207.60 956.65,2208.16 955.78,2207.95 954.73,2206.96"/>
    </edge>
    <edge id=":9743227478_5" function="internal">
        <lane id=":9743227478_5_0" index="0" allow="pedestrian delivery bicycle" speed="5.52" length="5.64" shape="952.84,2211.68 953.98,2211.01 954.68,2210.01 954.93,2208.65 954.73,2206.96"/>
    </edge>
    <edge id=":9743227478_6" function="internal">
        <lane id=":9743227478_6_0" index="0" disallow="tram rail_urban rail rail_electric rail_fast ship container cable_car subway aircraft wheelchair scooter drone" speed="13.89" length="9.53" shape="952.84,2211.68 961.73,2208.28"/>
    </edge>
    <edge id=":9743227479_0" function="internal">
        <lane id=":9743227479_0_0" index="0" allow="pedestrian delivery bicycle" speed="3.65" length="4.67" shape="950.28,2187.48 950.80,2186.14 951.49,2185.57 952.36,2185.78 953.40,2186.77"/>
    </edge>

    <edge id="-1060479148" from="9743227476" to="9743227475" priority="1" type="highway.service">
        <lane id="-1060479148_0" index="0" allow="pedestrian delivery bicycle" speed="5.56" length="19.06" shape="475.98,2239.14 465.12,2223.48"/>
    </edge>
    <edge id="-1060479150" from="9743227479" to="9743227478" priority="1" type="highway.service">
        <lane id="-1060479150_0" index="0" allow="pedestrian delivery bicycle" speed="5.56" length="19.98" shape="953.40,2186.77 957.85,2206.25"/>
    </edge>
    <edge id="-828146416" from="7731273924" to="7731273921" priority="1" type="highway.service" shape="557.77,2424.24 259.88,2685.30 244.40,2688.93 141.72,2773.99">
        <lane id="-828146416_0" index="0" allow="pedestrian delivery bicycle" speed="5.56" length="545.26" shape="558.74,2425.52 260.63,2686.77 245.13,2690.40 142.74,2775.22"/>
    </edge>
    <edge id="-828146417#0" from="9743227478" to="7731273924" priority="3" type="highway.residential" shape="957.46,2211.72 825.11,2259.16 710.41,2320.02 628.43,2370.68 557.77,2424.24">
        <lane id="-828146417#0_0" index="0" disallow="tram rail_urban rail rail_electric rail_fast ship container cable_car subway aircraft wheelchair scooter drone" speed="13.89" length="450.53" shape="953.91,2214.69 825.76,2260.63 711.21,2321.41 629.33,2372.00 558.83,2425.44"/>
    </edge>
    <edge id="-828146417#1" from="7731273933" to="9743227478" priority="3" type="highway.residential" shape="1714.87,2077.19 1652.98,2089.88 1519.63,2108.80 1192.23,2162.89 1007.70,2192.69 972.01,2205.87 957.46,2211.72">
        <lane id="-828146417#1_0" index="0" disallow="tram rail_urban rail rail_electric rail_fast ship container cable_car subway aircraft wheelchair scooter drone" speed="13.89" length="760.34" shape="1710.81,2079.65 1653.25,2091.46 1519.87,2110.39 1192.48,2164.47 1008.11,2194.24 972.59,2207.36 962.93,2211.25"/>
    </edge>
    <edge id="-828146417#2" from="7731273934" to="7731273933" priority="3" type="highway.residential">
        <lane id="-828146417#2_0" index="0" disallow="tram rail_urban rail rail_electric rail_fast ship container cable_car subway aircraft wheelchair scooter drone" speed="13.89" length="46.96" shape="1764.71,2063.71 1719.78,2077.37"/>
    </edge>
    <edge id="-828146419#0" from="7731273943" to="7731273939" priority="1" type="highway.service" shape="309.36,2225.55 104.22,2414.05 5.43,2513.04 0.00,2522.58 54.30,2577.40">
        <lane id="-828146419#0_0" index="0" allow="pedestrian delivery bicycle" speed="5.56" length="499.06" shape="307.06,2229.84 105.33,2415.20 6.72,2514.02 1.99,2522.32 55.43,2576.28"/>
    </edge>
    <edge id="-828146419#1" from="7731273948" to="7731273943" priority="1" type="highway.service">
        <lane id="-828146419#1_0" index="0" allow="pedestrian delivery bicycle" speed="5.56" length="85.28" shape="375.52,2164.48 313.89,2223.43"/>
    </edge>
    <edge id="-828146419#2" from="7784666322" to="7731273948" priority="1" type="highway.service">
        <lane id="-828146419#2_0" index="0" allow="pedestrian delivery bicycle" speed="5.56" length="11.71" shape="390.79,2149.86 382.33,2157.95"/>
    </edge>
    <edge id="-828146419#3" from="7731273950" to="7784666322" priority="1" type="highway.service">
        <lane id="-828146419#3_0" index="0" allow="pedestrian delivery bicycle" speed="5.56" length="43.76" shape="427.47,2114.77 395.85,2145.02"/>
    </edge>
    <edge id="-828146419#4" from="7731273951" to="7731273950" priority="1" type="highway.service" shape="488.80,2204.53 547.24,2168.78 496.82,2059.56 489.95,2052.79 430.31,2109.85">
        <lane id="-828146419#4_0" index="0" allow="pedestrian delivery bicycle" speed="5.56" length="265.67" shape="491.96,2200.72 545.19,2168.16 495.49,2060.49 489.93,2055.02 434.37,2108.17"/>
    </edge>
    <edge id="-828146419#5" from="9743227475" to="7731273951" priority="1" type="highway.service">
        <lane id="-828146419#5_0" index="0" allow="pedestrian delivery bicycle" speed="5.56" length="18.90" shape="467.20,2214.58 483.76,2205.47"/>
    </edge>
    <edge id="-828146419#6" from="7731273949" to="9743227475" priority="1" type="highway.service">
        <lane id="-828146419#6_0" index="0" allow="pedestrian delivery bicycle" speed="5.56" length="22.56" shape="440.06,2232.24 458.80,2219.68"/>
    </edge>
    <edge id="-828146419#7" from="7731273943" to="7731273949" priority="1" type="highway.service" shape="309.36,2225.55 363.66,2281.05 437.22,2236.07">
        <lane id="-828146419#7_0" index="0" allow="pedestrian delivery bicycle" speed="5.56" length="151.51" shape="313.82,2227.81 363.91,2279.02 432.06,2237.35"/>
    </edge>
    <edge id="-828146420" from="7731273949" to="7731273948" priority="1" type="highway.service">
        <lane id="-828146420_0" index="0" allow="pedestrian delivery bicycle" speed="5.56" length="86.38" shape="432.84,2233.04 379.89,2164.80"/>
    </edge>
    <edge id="-828146421" from="7731273951" to="7731273950" priority="1" type="highway.service">
        <lane id="-828146421_0" index="0" allow="pedestrian delivery bicycle" speed="5.56" length="100.97" shape="484.88,2201.23 431.81,2115.33"/>
    </edge>
    <edge id="-828146423" from="7731273933" to="7731273956" priority="1" type="highway.service">
        <lane id="-828146423_0" index="0" allow="pedestrian delivery bicycle" speed="5.56" length="72.20" shape="1717.68,2081.21 1737.35,2150.68"/>
    </edge>